   18
 
C       2.6031819999999999    0.1276820000000000    0.0402110000000000
C       1.1191089999999999    0.0334010000000000   -0.0342240000000000
C       0.4067680000000000    1.2407969999999999   -0.0594960000000000
C      -0.9843130000000000    1.2048019999999999   -0.1370780000000000
O      -1.7004990000000000    2.3666459999999998   -0.1553880000000000
C      -1.6413860000000000   -0.0325810000000000   -0.2093960000000000
O      -3.0419710000000002   -0.0691140000000000   -0.2564560000000000
C      -0.9256290000000000   -1.2363470000000001   -0.1419610000000000
O      -1.5858909999999999   -2.4309930000000000   -0.1640410000000000
C       0.4673710000000000   -1.2086650000000001   -0.0646110000000000
O       3.2378529999999999    1.1674549999999999    0.0865760000000000
O       3.2134459999999998   -1.0965560000000001    0.0493670000000000
H       0.9371560000000000    2.1901880000000000   -0.0143200000000000
H      -2.6440470000000000    2.1223920000000001   -0.0827400000000000
H      -3.3315070000000002   -0.0547770000000000   -1.1884220000000001
H      -2.5405519999999999   -2.2297699999999998   -0.1023360000000000
H       1.0243420000000001   -2.1417970000000000   -0.0241120000000000
H       4.1707689999999999   -0.9033639999999999    0.0994270000000000
