   20
 
O      -1.3126020000000000    2.1780590000000002   -0.1558940000000000
C      -1.7181340000000001    0.8725700000000000   -0.1038520000000000
C      -0.7121820000000000   -0.1273960000000000   -0.0503700000000000
C      -1.1380619999999999   -1.4719660000000001    0.0065780000000000
C      -2.4839950000000002   -1.8180410000000000    0.0100040000000000
C      -3.4576370000000001   -0.8112920000000000   -0.0442180000000000
C      -3.0758589999999999    0.5271439999999999   -0.1009260000000000
C       0.6883200000000000    0.2689130000000000   -0.0611120000000000
C       1.7656980000000000   -0.5449140000000000    0.0160780000000000
C       3.1222979999999998    0.0239040000000000   -0.0153400000000000
O       3.4229710000000000    1.2040770000000001   -0.1086530000000000
O       4.0731919999999997   -0.9649630000000000    0.0759450000000000
H      -2.0978070000000000    2.7499970000000000   -0.1943720000000000
H      -0.3860130000000000   -2.2605080000000002    0.0453670000000000
H      -2.7796910000000001   -2.8659460000000001    0.0536060000000000
H      -4.5173170000000002   -1.0688839999999999   -0.0431370000000000
H      -3.8311389999999999    1.3160310000000000   -0.1431500000000000
H       0.8917860000000000    1.3393360000000001   -0.1398750000000000
H       1.6948190000000001   -1.6294679999999999    0.1040130000000000
H       4.9326520000000000   -0.4975530000000000    0.0478090000000000
