  114
 
H      15.1793870000000002   -0.2913160000000000   -4.1346520000000000
O      15.1131620000000009    1.8756170000000001   -5.5590679999999999
H      15.6151979999999995    1.8340700000000001   -3.0198450000000001
H      17.2477780000000003    0.9184650000000000   -4.5870009999999999
Si     15.7922460000000004    1.0609940000000000   -4.2876079999999996
O      12.7050570000000000    2.4490379999999998   -4.6014429999999997
O      13.9653410000000004    4.1954339999999997   -6.1772859999999996
Si     13.6878530000000005    2.5908920000000002   -5.9101710000000001
O      10.5833080000000006    3.9611010000000002   -3.8040560000000001
O      12.1784060000000007    2.8599790000000000   -2.0186980000000001
O      13.0895510000000002    4.8842689999999997   -3.5583870000000002
Si     12.1434680000000004    3.5210539999999999   -3.5018650000000000
O       8.5551390000000005    5.4295159999999996   -4.8841370000000000
O      10.9874829999999992    6.4113150000000001   -4.8246989999999998
Si     10.1225579999999997    5.0039709999999999   -4.9874530000000004
O       6.3202699999999998    6.8096719999999999   -4.4096700000000002
O       8.6893700000000003    7.9300400000000000   -3.8790879999999999
Si      7.8477569999999996    6.9253109999999998   -4.8984990000000002
H      11.8551850000000005    1.8023739999999999    0.2611400000000000
H      10.0932440000000003    1.4533170000000000   -1.3900920000000001
H      10.3619889999999995    3.6379500000000000   -0.3411870000000000
Si     11.0834820000000001    2.4328129999999999   -0.8492310000000000
H       5.0014430000000001    4.5991049999999998   -4.8240970000000001
H       3.8479350000000001    6.5346919999999997   -3.8257970000000001
H       5.4828380000000001    5.2814990000000002   -2.5466620000000000
Si      5.1223850000000004    5.7722680000000004   -3.9179759999999999
H       9.3235550000000007    6.6914939999999996  -13.1921160000000004
H       8.3477519999999998    4.6972449999999997  -11.7969889999999999
H       7.3742380000000001    0.2238620000000000  -10.6013610000000007
Si      8.8030439999999999    6.1193510000000000  -11.9199110000000008
H       7.8683170000000002    1.6402600000000001  -12.5234690000000004
H      10.3508870000000002    5.6121470000000002  -11.5380289999999999
Si      8.0073720000000002    1.5040260000000001  -11.0431200000000000
H       7.8792169999999997   10.2916830000000008  -10.3808550000000004
H       7.3731600000000004    2.6556940000000000  -10.3501220000000007
O       8.8039090000000009    7.1488100000000001  -10.5565440000000006
Si      7.2008500000000000   10.7739229999999999   -9.1416140000000006
O       9.6196190000000001    1.4006590000000001  -10.6529740000000004
H       7.7975529999999997   12.0823370000000008   -8.7272370000000006
H       5.7431460000000003   10.9591820000000002   -9.3987180000000006
Si      9.8448960000000003    7.1151920000000004   -9.3172160000000002
O       7.3530970000000000    9.6675380000000004   -7.9188729999999996
O      11.4437160000000002    7.1603240000000001   -9.7979199999999995
Si     15.3381939999999997   -0.7039780000000000   -8.0654170000000001
Si     10.8088470000000001    2.3549639999999998  -10.0862510000000007
O       9.6231059999999999    8.3740810000000003   -8.3087020000000003
H      16.6076000000000015    0.0042670000000000   -7.7217979999999997
O       9.6188590000000005    5.7330300000000003   -8.4469720000000006
O      11.4425190000000008    3.3745620000000001  -11.1858889999999995
Si      8.5568159999999995    8.8587559999999996   -7.1656250000000004
O      10.2454990000000006    3.1571910000000001   -8.7672670000000004
O      14.3248599999999993    0.2746620000000000   -8.9188910000000003
O       9.3270929999999996    9.8299800000000008   -6.0944079999999996
O      12.0091429999999999    1.3316859999999999   -9.5952579999999994
Si     10.5929120000000001    4.5257449999999997   -7.9733450000000001
Si     13.4054120000000001    1.6112489999999999   -8.7839919999999996
O      12.1888380000000005    4.9737669999999996   -8.2127750000000006
O      14.2707920000000001    2.8580770000000002   -9.3949730000000002
O       7.9019550000000001    7.5606070000000001   -6.4053750000000003
O      10.4082329999999992    4.2263650000000004   -6.3868010000000002
O      13.0126819999999999    1.8719180000000000   -7.2037050000000002
H      13.4110200000000006    4.5970370000000003   -6.8902559999999999
H      13.6457149999999992    4.8841950000000001   -4.3699630000000003
H      11.8455220000000008    6.2562270000000000   -4.3788429999999998
H       9.6323100000000004    7.6709740000000002   -3.8691309999999999
H      11.4679120000000001    6.7087469999999998  -10.6736079999999998
H      10.9639760000000006    4.2312839999999996  -11.3767490000000002
H       9.1943280000000005    9.5437469999999998   -5.1716810000000004
H      12.2186350000000008    5.8117780000000003   -8.7397460000000002
H      13.7802710000000008    3.6930540000000001   -9.4725599999999996
H      15.6389549999999993   -1.8917780000000000   -8.9169479999999997
H      14.6921990000000005   -1.1662490000000001   -6.7971899999999996
C       5.2016809999999998    6.3361650000000003  -10.8643660000000004
C       5.1375700000000002    5.3712249999999999   -8.5263880000000007
C       4.9861449999999996    6.7750680000000001   -7.9308649999999998
C       4.4672679999999998    7.8115930000000002   -8.9472889999999996
C       9.4610090000000007    0.0657870000000000   -7.3824339999999999
C       9.0535139999999998    1.0168260000000000   -5.1951099999999997
C      10.2218330000000002    0.4265940000000000   -4.7217250000000002
H       3.7988890000000000    5.8422200000000002  -12.0610499999999998
H       3.2298510000000000    6.8837560000000000   -7.1678199999999999
H       2.9594049999999998    6.9951910000000002   -9.8658439999999992
H      11.4900339999999996   -0.7913960000000000   -8.6363579999999995
H      12.6900820000000003   -1.1678329999999999   -5.9339870000000001
C       8.6564540000000001    0.8524650000000000   -6.5351200000000000
C      10.6612550000000006   -0.4582340000000000   -6.9307720000000002
C      11.0484329999999993   -0.2913380000000000   -5.5893370000000004
O       7.1154200000000003    6.6555619999999998  -12.3941119999999998
O       5.1526480000000001    2.6453240000000000   -8.3642090000000007
C       5.8580740000000002    5.3591889999999998   -9.8807080000000003
C       5.2336780000000003    7.7576239999999999  -10.2708820000000003
O       3.8311530000000000    5.9341210000000002  -11.0726580000000006
O       4.1244649999999998    6.7637780000000003   -6.7910019999999998
O       3.0484830000000001    7.6434119999999997   -9.1297090000000001
O       5.1332339999999999    6.0375819999999996  -13.2242540000000002
O      11.5441540000000007   -1.1564260000000000   -7.7344999999999997
O      12.2353140000000007   -0.8025800000000000   -5.1500139999999996
C       5.8673120000000001    6.3154919999999999  -12.2689690000000002
C       5.9146229999999997    3.2742439999999999   -7.6457509999999997
O       5.9444679999999996    4.6334260000000000   -7.5641049999999996
C       6.9849930000000002    2.7065500000000000   -6.8053340000000002
C       7.4898420000000003    1.4967660000000000   -7.1209309999999997
H       4.1603859999999999    4.8752969999999998   -8.6127610000000008
H       5.8328769999999999    4.3431249999999997  -10.2934500000000000
H       6.9077570000000001    5.6391989999999996   -9.7197709999999997
H       5.9732700000000003    7.0970079999999998   -7.5749310000000003
H       4.5893759999999997    8.8022440000000000   -8.4830830000000006
H       6.2846050000000000    8.0396479999999997  -10.1130250000000004
H       4.7952729999999999    8.4762280000000008  -10.9790759999999992
H       7.4270250000000004    3.3566799999999999   -6.0505230000000001
H       7.0255660000000004    0.9834180000000000   -7.9693759999999996
H       9.1707710000000002   -0.0838960000000000   -8.4235009999999999
H       8.4357340000000001    1.6037950000000001   -4.5148370000000000
H      10.5299060000000004    0.5400480000000000   -3.6829489999999998
