  114
 
H      14.0517719999999997   -0.7950620000000000   -5.3442759999999998
O      14.0357430000000001    1.9564269999999999   -4.9851640000000002
H      16.3349329999999995    0.4470130000000000   -5.2669899999999998
H      14.7780760000000004    0.6941850000000001   -6.8442010000000000
Si     14.8425320000000003    0.4774750000000000   -5.2622390000000001
O      12.1702209999999997    3.7239499999999999   -4.4911399999999997
O      13.7979409999999998    4.0751379999999999   -6.6009209999999996
Si     12.9743739999999992    2.9436909999999998   -5.6720699999999997
O       9.9859519999999993    5.3246690000000001   -4.5755379999999999
O      10.5013020000000008    3.7948439999999999   -2.4585230000000000
O      11.9941580000000005    5.9867220000000003   -3.0771169999999999
Si     11.1625660000000000    4.6605040000000004   -3.6537169999999999
O       8.3918999999999997    7.0756040000000002   -5.8200450000000004
O      10.6738490000000006    7.9148870000000002   -4.8126139999999999
Si      9.9319199999999999    6.6284140000000003   -5.5514890000000001
O       6.2437329999999998    7.9169169999999998   -4.4898090000000002
O       8.3253190000000004    9.6167339999999992   -4.9414490000000004
Si      7.4341780000000002    8.3637739999999994   -5.5390119999999996
H       9.6263839999999998    5.1764270000000003   -0.4921500000000000
H       9.3655580000000000    2.7588810000000001   -0.4087990000000000
H       7.9762729999999999    4.1409609999999999   -1.9163319999999999
Si      9.3189530000000005    3.9466640000000002   -1.2983210000000001
H       5.4383990000000004    6.2084450000000002   -2.7693780000000001
H       5.9168159999999999    8.4679570000000002   -1.9943130000000000
H       7.7565949999999999    6.9756239999999998   -2.5959930000000000
Si      6.3543050000000001    7.3765559999999999   -2.9143870000000001
H       5.9487420000000002    7.0239779999999996  -12.4254359999999995
H       7.7145690000000000    5.5917649999999997  -11.5216999999999992
H       9.7934350000000006    4.2410189999999997  -13.0448380000000004
Si      7.4022509999999997    6.9277930000000003  -12.1080670000000001
H      12.0266649999999995    4.9678620000000002  -13.6955530000000003
H       8.1922490000000003    7.0940089999999998  -13.3682259999999999
Si     11.0548050000000000    4.8817719999999998  -12.5650929999999992
H       6.0120690000000003   10.6574620000000007  -11.4220690000000005
H      10.7474080000000001    6.2611640000000000  -12.0736380000000008
O       7.7765829999999996    8.1446799999999993  -11.0547339999999998
Si      4.9707980000000003   10.1277539999999995  -10.4927360000000007
O      11.7411429999999992    3.9682100000000000  -11.3725710000000007
H       3.8010220000000001   11.0586230000000008  -10.4800129999999996
H       4.5168290000000004    8.7807239999999993  -10.9459409999999995
Si      8.8791550000000008    8.5174040000000009   -9.9112969999999994
O       5.5408590000000002   10.0217759999999991   -8.9456819999999997
O      10.2343709999999994    9.1285129999999999  -10.5940840000000005
Si      9.5439670000000003   -0.8864370000000000   -7.6537579999999998
Si     11.7431319999999992    3.8968340000000001   -9.7428419999999996
O       8.2036990000000003    9.6429869999999998   -8.9409030000000005
H      10.4917909999999992   -1.7511509999999999   -6.8935849999999999
O       9.2370409999999996    7.1839789999999999   -9.0249050000000004
O      13.1625300000000003    4.5582380000000002   -9.2310970000000001
Si      6.8882440000000003    9.9860550000000003   -8.0380210000000005
O      10.4972279999999998    4.8264959999999997   -9.1782740000000000
O      10.1559089999999994    0.6417780000000000   -7.8642950000000003
O       7.0617310000000000   11.4584799999999998   -7.3380760000000000
O      11.5241290000000003    2.3631639999999998   -9.2797830000000001
Si     10.5580060000000007    6.3464749999999999   -8.5809529999999992
Si     11.6188529999999997    1.3515349999999999   -7.9868920000000001
O      11.8674250000000008    7.1658350000000004   -9.1781349999999993
O      12.7703319999999998    0.2297270000000000   -8.2029440000000005
O       6.6693379999999998    8.8275389999999998   -6.8936809999999999
O      10.6493310000000001    6.2594159999999999   -6.9574840000000000
O      11.8591789999999992    2.2708670000000000   -6.6450699999999996
H      14.7552050000000001    4.0254149999999997   -6.4629859999999999
H      12.8397319999999997    5.8026369999999998   -2.6449650000000000
H      11.3122389999999999    7.6316160000000002   -4.1290709999999997
H       9.2441610000000001    9.3494150000000005   -4.7314679999999996
H      11.0492489999999997    8.6768249999999991  -10.3023360000000004
H      13.4251860000000001    4.3671239999999996   -8.2945650000000004
H       7.6541819999999996   11.4670269999999999   -6.5697289999999997
H      12.6538199999999996    6.5892039999999996   -9.2582970000000007
H      13.6189820000000008    0.3487650000000000   -7.6852770000000001
H       9.2996429999999997   -1.4977199999999999   -8.9979940000000003
H       8.2500950000000000   -0.7603940000000000   -6.9268450000000001
C      12.9061769999999996   -0.4747330000000000   -2.3021650000000000
C      10.5429429999999993   -0.3729590000000000   -3.2386810000000001
C      10.6002550000000006   -1.8626860000000001   -3.5957750000000002
C      11.6249310000000001   -2.6189049999999998   -2.7207340000000002
C       5.9882289999999996    4.7164210000000004   -5.8139839999999996
C       7.6080670000000001    3.8295010000000000   -7.3791120000000001
C       7.1371370000000001    4.6898520000000001   -8.3616329999999994
H      13.2135840000000009   -0.0316440000000000   -0.4780540000000000
H       9.2368959999999998   -2.6779860000000002   -2.5248029999999999
H      11.4311030000000002   -1.9859860000000000   -0.8891530000000000
H       4.7105420000000002    7.0182979999999997   -5.7791090000000001
H       5.0209640000000002    7.0475019999999997   -8.5614329999999992
C       7.0456110000000001    3.8241510000000001   -6.0834750000000000
C       5.5281300000000000    5.5914720000000004   -6.7874949999999998
C       6.1026720000000001    5.5865030000000004   -8.0715240000000001
O      15.0059249999999995    0.3134200000000000   -3.3736830000000002
O       8.4743110000000001    1.3857560000000000   -2.7782290000000001
C      11.9244280000000007    0.2780360000000000   -3.2046559999999999
C      13.0014550000000000   -1.9511410000000000   -2.7357429999999998
O      12.4222540000000006   -0.4168690000000000   -0.9446110000000000
O       9.3209870000000006   -2.4800249999999999   -3.4777790000000000
O      11.1003500000000006   -2.7668040000000000   -1.3887130000000001
O      14.7338699999999996    0.5350240000000001   -1.1682300000000001
O       4.5024020000000000    6.5033810000000001   -6.5817240000000004
O       5.6696939999999998    6.4702869999999999   -9.0128430000000002
C      14.3167639999999992    0.1915650000000000   -2.2861400000000001
C       8.8695609999999991    1.2270610000000000   -3.9267330000000000
O       9.8072979999999994    0.3075650000000000   -4.2916580000000000
C       8.4546659999999996    1.9955600000000000   -5.1058640000000004
C       7.5069309999999998    2.9533019999999999   -5.0169360000000003
H      10.0050930000000005   -0.2260250000000000   -2.2922389999999999
H      11.8312899999999992    1.3180400000000001   -2.8660260000000002
H      12.3091910000000002    0.2875720000000000   -4.2326490000000003
H      10.8983600000000003   -1.9551300000000000   -4.6535380000000002
H      11.7008449999999993   -3.6413850000000001   -3.1259929999999998
H      13.4235290000000003   -2.0059250000000000   -3.7502460000000002
H      13.6826840000000001   -2.4899100000000001   -2.0605769999999999
H       8.9749700000000008    1.7730340000000000   -6.0354010000000002
H       7.0396120000000000    3.0982479999999999   -4.0373609999999998
H       5.5258279999999997    4.7236560000000001   -4.8250029999999997
H       8.4344900000000003    3.1609509999999998   -7.6201449999999999
H       7.5873980000000003    4.7064420000000000   -9.3528369999999992
