  114
 
H      10.2349619999999994   -0.1251540000000000   -4.5336480000000003
O      12.7085570000000008    0.3752430000000000   -5.1864869999999996
H      11.9918259999999997   -0.4673260000000000   -2.8603770000000002
H      11.8411480000000005   -1.9662990000000000   -4.7656840000000003
Si     11.6434069999999998   -0.5554220000000000   -4.3129670000000004
O      12.0306800000000003    2.9002340000000002   -4.6904209999999997
O      14.4902320000000007    2.3821089999999998   -5.4721849999999996
Si     12.9059650000000001    1.9238519999999999   -5.6459780000000004
O      11.6025069999999992    5.5304390000000003   -4.9403240000000004
O      11.2934809999999999    4.3491960000000001   -2.5871919999999999
O      13.7501510000000007    4.6626659999999998   -3.5944330000000000
Si     12.1623350000000006    4.3603750000000003   -3.9554490000000002
O      10.7883399999999998    7.9590969999999999   -5.7007709999999996
O      13.1575889999999998    7.6883929999999996   -4.5274179999999999
Si     12.0587040000000005    6.9772429999999996   -5.5427419999999996
O       9.2387460000000008    8.8554080000000006   -3.7151390000000002
O      11.3557190000000006   10.2900449999999992   -4.5217070000000001
Si     10.1260680000000001    9.2978269999999998   -4.9970990000000004
H       9.7122379999999993    4.6643080000000001   -0.6408560000000000
H       8.7433460000000007    4.7639019999999999   -2.8883350000000001
H      10.1433180000000007    6.6008979999999999   -2.0581410000000000
Si      9.9166760000000007    5.1263399999999999   -2.0476260000000002
H       7.2817509999999999    7.4397370000000000   -2.7801950000000000
H       6.7284949999999997    9.6128499999999999   -3.8532609999999998
H       7.8672459999999997    9.5150520000000007   -1.7208030000000001
Si      7.7167120000000002    8.8378990000000002   -3.0570860000000000
H       7.0160669999999996    7.6950979999999998  -11.1588150000000006
H       8.6260040000000000    5.8687370000000003  -11.3476839999999992
H      10.6622090000000007    4.8111800000000002  -12.8648170000000004
Si      8.3690730000000002    7.3088119999999996  -11.6533800000000003
H      12.6625359999999993    5.5306590000000000  -14.0500279999999993
H       8.4448030000000003    7.4992380000000001  -13.1349929999999997
Si     12.0041609999999999    5.4484219999999999  -12.7107890000000001
H       5.6185390000000002    8.7602700000000002   -9.2518329999999995
H      11.8505000000000003    6.8208690000000001  -12.1470450000000003
O       9.5398759999999996    8.2646719999999991  -10.9875070000000008
Si      5.5082990000000001    9.7665520000000008   -8.1594460000000009
O      12.9639270000000000    4.5166190000000004  -11.7451609999999995
H       5.1099750000000004   11.0669439999999994   -8.8116760000000003
H       4.4666490000000003    9.4500349999999997   -7.1492170000000002
Si     10.2694060000000000    8.5629550000000005   -9.5595350000000003
O       6.9615929999999997   10.0707970000000007   -7.4221360000000001
O      11.2857120000000002    9.8519839999999999   -9.7154880000000006
Si     10.4506850000000000   -0.5227790000000000   -8.8692019999999996
Si     13.3785360000000004    4.1586650000000001  -10.2137019999999996
O       9.1405360000000009    8.8710389999999997   -8.4378630000000001
H      10.7707709999999999   -1.9284460000000001   -9.2874750000000006
O      11.1258820000000007    7.2213560000000001   -9.1488980000000009
O      14.9779020000000003    3.7842970000000000  -10.1568140000000007
Si      8.5603750000000005   10.1422869999999996   -7.5601550000000000
O      13.1030780000000000    5.4295530000000003   -9.2504410000000004
O      11.8792469999999994    0.2951910000000000   -9.1480080000000008
O       8.9463930000000005   11.5503440000000008   -8.3268799999999992
O      12.5002510000000004    2.8548450000000001   -9.7344430000000006
Si     12.6041070000000008    6.8281289999999997   -8.6091529999999992
Si     12.7369350000000008    1.6009750000000000   -8.7298019999999994
O      13.5785920000000004    8.0741809999999994   -9.1402859999999997
O      14.3613260000000000    1.1926930000000000   -8.8134479999999993
O       9.2546839999999992   10.1227549999999997   -6.0837539999999999
O      12.7608630000000005    6.7327019999999997   -6.9963699999999998
O      12.4499879999999994    2.0872419999999998   -7.2008450000000002
H      15.0577529999999999    2.2097419999999999   -6.2376149999999999
H      14.3662259999999993    4.0974700000000004   -4.0938040000000004
H      13.7176220000000004    7.0551579999999996   -4.0487840000000004
H      12.1160189999999997    9.8133890000000008   -4.1528380000000000
H      12.2231830000000006    9.5990640000000003   -9.6214200000000005
H      15.1436790000000006    2.8778109999999999   -9.8431899999999999
H       9.8620099999999997   11.5857019999999995   -8.6453589999999991
H      14.3999880000000005    8.1921230000000005   -8.6438210000000009
H      14.5243149999999996    0.2757050000000000   -9.0742840000000005
H       9.3440110000000001   -0.0331110000000000   -9.7339009999999995
H      10.0982000000000003   -0.5434270000000000   -7.4232250000000004
C       7.6319619999999997    5.4557630000000001   -6.7792560000000002
C       7.8096719999999999    2.9935220000000000   -6.8877480000000002
C       8.6450499999999995    3.0491850000000000   -8.1757179999999998
C       9.2743839999999995    4.4435539999999998   -8.4079910000000009
C       6.0218819999999997   -3.4901949999999999   -4.1070760000000002
C       5.5744639999999999   -3.2836789999999998   -6.4734999999999996
C       4.9851190000000001   -4.5437669999999999   -6.4736409999999998
H       8.4599609999999998    6.2900640000000001   -5.3169310000000003
H      10.3933839999999993    2.6057070000000002   -7.5912800000000002
H      10.0411450000000002    4.9147999999999996   -6.6908659999999998
H       5.6667990000000001   -5.0791519999999997   -2.2173400000000001
H       4.3530540000000002   -6.8555200000000003   -4.3778959999999998
C       6.0986490000000000   -2.7260380000000000   -5.2896869999999998
C       5.4249409999999996   -4.7424850000000003   -4.1037540000000003
C       4.8983670000000004   -5.2823089999999997   -5.2903529999999996
O       5.8417950000000003    7.0287490000000004   -7.2350190000000003
O       7.9984400000000004    1.1195010000000001   -4.8899070000000000
C       6.8265310000000001    4.1493370000000001   -6.7160659999999996
C       8.2794910000000002    5.5719909999999997   -8.1701090000000001
O       8.6580919999999999    5.4046469999999998   -5.7657530000000001
O       9.7104780000000002    2.0987279999999999   -8.0887919999999998
O      10.4167930000000002    4.5629410000000004   -7.5429079999999997
O       7.2914250000000003    7.4368400000000001   -5.5269469999999998
O       5.2984590000000003   -5.5440480000000001   -2.9845790000000001
O       4.3137800000000004   -6.5179239999999998   -5.2909850000000000
C       6.8070199999999996    6.7590190000000003   -6.4924759999999999
C       7.3388109999999998    0.8612350000000000   -5.8850800000000003
O       7.1071700000000000    1.7150909999999999   -6.9139609999999996
C       6.6677989999999996   -0.4289120000000000   -6.1468689999999997
C       6.7023370000000000   -1.4038290000000000   -5.2167120000000002
H       8.4870210000000004    2.9770390000000000   -6.0239440000000002
H       6.3273000000000001    4.0576829999999999   -5.7408180000000000
H       6.0544070000000003    4.1489229999999999   -7.4994630000000004
H       8.0146110000000004    2.7687729999999999   -9.0356339999999999
H       9.6687530000000006    4.4698560000000001   -9.4374059999999993
H       7.4821530000000003    5.5628719999999996   -8.9277239999999995
H       8.7966519999999999    6.5339400000000003   -8.2429450000000006
H       6.1487600000000002   -0.5294310000000000   -7.1009279999999997
H       7.2280899999999999   -1.1588290000000001   -4.2875490000000003
H       6.4267060000000003   -3.0791569999999999   -3.1777630000000001
H       5.6398450000000002   -2.7284489999999999   -7.4090129999999998
H       4.5845589999999996   -4.9789550000000000   -7.3895970000000002
