   96
 
H      13.2441750000000003   -0.5840660000000000   -4.5877540000000003
O      14.9536119999999997    1.0433440000000000   -5.6397550000000001
H      15.0226439999999997    0.2898380000000000   -3.1644739999999998
H      15.5462840000000000   -1.3173260000000000   -4.9368819999999998
Si     14.6791999999999998   -0.1715210000000000   -4.5415049999999999
O      13.3935340000000007    3.0575530000000000   -4.8894880000000001
O      15.7585970000000000    3.6249500000000001   -5.8993750000000000
Si     14.4920700000000000    2.5628039999999999   -5.9827769999999996
O      11.6436489999999999    5.0855259999999998   -5.1591760000000004
O      12.4005189999999992    4.2627639999999998   -2.7581110000000000
O      14.1365459999999992    5.5885759999999998   -4.3651270000000002
Si     12.8883030000000005    4.5001889999999998   -4.2829230000000003
O       9.9033739999999995    6.9843430000000000   -5.9555660000000001
O      12.4433199999999999    7.6106990000000003   -5.6476490000000004
Si     11.4090410000000002    6.3998419999999996   -6.1035620000000002
O       8.5879560000000001    7.5864810000000000   -3.7346610000000000
O      10.2270760000000003    9.4293449999999996   -4.8834980000000003
Si      9.1664829999999995    8.1996459999999995   -5.1285210000000001
H      11.7022980000000008    4.8492319999999998   -0.3878370000000000
H       9.9399960000000007    4.1705949999999996   -1.9526930000000000
H      11.0169639999999998    6.3619029999999999   -2.1725379999999999
Si     11.2091010000000004    4.9286370000000002   -1.7934619999999999
H       8.2281069999999996    6.6055780000000004   -1.4177720000000000
H       6.9414309999999997    8.5792959999999994   -2.0299760000000000
H       9.3287150000000008    8.7833229999999993   -1.5603370000000001
Si      8.2714130000000008    7.9066580000000002   -2.1469399999999998
H       8.1603250000000003    8.8136820000000000  -13.4977490000000007
H       9.2048679999999994    6.7920980000000002  -12.6096810000000001
H      10.4305380000000003    4.3004899999999999  -13.3089650000000006
Si      9.2430559999999993    8.2848039999999994  -12.6182119999999998
H      12.3408549999999995    4.1694839999999997  -14.8394849999999998
H      10.5719930000000009    8.7382329999999993  -13.1305300000000003
Si     11.8340379999999996    4.7362960000000003  -13.5562679999999993
H       5.2139329999999999    9.3904490000000003   -9.9432159999999996
H      11.9041610000000002    6.2284340000000000  -13.6069739999999992
O       8.9882609999999996    8.8802520000000005  -11.0975339999999996
Si      4.6639860000000004    9.3884709999999991   -8.5526619999999998
O      12.8374480000000002    4.1664479999999999  -12.3556580000000000
H       3.7018970000000002   10.5175120000000000   -8.3899609999999996
H       3.9592540000000001    8.0944550000000000   -8.3044779999999996
Si      9.4176169999999999    8.6303610000000006   -9.5460019999999997
O       5.8743699999999999    9.5676340000000000   -7.4409979999999996
O      10.4677030000000002    9.7686679999999999   -8.9883190000000006
Si     13.7356320000000007   -0.7414920000000000   -9.2690490000000008
Si     13.0595640000000000    4.4402970000000002  -10.7733760000000007
O       8.0745000000000005    8.6986869999999996   -8.6380870000000005
H      14.4900880000000001   -1.6751370000000001  -10.1514030000000002
O      10.0692769999999996    7.1283789999999998   -9.4298990000000007
O      14.3862330000000007    5.3902690000000000  -10.4842180000000003
Si      7.4936270000000000    9.5327020000000005   -7.3436909999999997
O      11.7742360000000001    5.2401790000000004  -10.1807850000000002
O      14.4969219999999996    0.7309080000000000   -9.3479820000000000
O       8.0286770000000001   11.0800549999999998   -7.3364490000000000
O      13.2680340000000001    2.9857550000000002  -10.0387109999999993
Si     11.5374630000000007    6.4940899999999999   -9.1640859999999993
Si     14.3293440000000007    2.3100740000000002   -9.0137599999999996
O      12.6258219999999994    7.7063930000000003   -9.4527300000000007
O      15.8243390000000002    3.0368330000000001   -9.1754650000000009
O       7.8886680000000000    8.7364580000000007   -5.9747009999999996
O      11.6664820000000002    5.9267300000000001   -7.6420570000000003
O      13.8482339999999997    2.5878160000000001   -7.4854979999999998
H      16.2883840000000006    3.7063160000000002   -6.7077410000000004
H      14.9540500000000005    5.2238309999999997   -4.7518760000000002
H      13.2619009999999999    7.2789219999999997   -5.2313919999999996
H      11.1595139999999997    9.1589349999999996   -4.9740710000000004
H      11.4072549999999993    9.5675950000000007   -9.1386280000000006
H      15.1828350000000007    4.9101920000000003  -10.2018109999999993
H       8.9922310000000003   11.1881170000000001   -7.3433869999999999
H      13.5224539999999998    7.4049680000000002   -9.6743980000000001
H      16.4750559999999986    2.5296129999999999   -9.6818799999999996
H      12.3205500000000008   -0.6146760000000000   -9.7275790000000004
H      13.7652500000000000   -1.2365420000000000   -7.8597020000000004
O      10.0847970000000000    2.4757120000000001  -10.1687519999999996
C       9.5605750000000000    2.9943290000000000   -9.0266959999999994
C       9.9358950000000004    2.4811329999999998   -7.7701750000000001
C       9.3939400000000006    2.9909309999999998   -6.5981420000000002
C       8.4605189999999997    4.0331370000000000   -6.6803499999999998
C       7.9215590000000002    4.5574940000000002   -5.4073539999999998
O       8.2707379999999997    4.1958500000000001   -4.2941940000000001
O       6.9673710000000000    5.5180309999999997   -5.5871800000000000
C       8.0750390000000003    4.5593139999999996   -7.9220899999999999
C       8.6160630000000005    4.0397040000000004   -9.1005409999999998
O       8.3028200000000005    4.4586600000000001  -10.3602129999999999
C       7.2224919999999999    5.3824889999999996  -10.4895610000000001
O      10.8477470000000000    1.4495899999999999   -7.8467989999999999
C      11.1285200000000000    0.7500720000000000   -6.6344779999999997
H      10.7224869999999992    1.7906750000000000   -9.8917619999999999
H       9.6693909999999992    2.6197819999999998   -5.6139380000000001
H       6.7567320000000004    5.8458290000000002   -4.6924149999999996
H       7.3665510000000003    5.3821890000000003   -7.9519149999999996
H       6.2883269999999998    4.9598529999999998  -10.0848829999999996
H       7.4344299999999999    6.3375930000000000   -9.9869319999999995
H       7.1113059999999999    5.5549480000000004  -11.5652489999999997
H      11.5635610000000000    1.4175670000000000   -5.8767360000000002
H      10.2167010000000005    0.2830030000000000   -6.2292230000000002
H      11.8539189999999994   -0.0281030000000000   -6.8916510000000004
