   92
 
H      14.1516620000000000   -0.0301050000000000   -3.7223560000000000
O      15.6240450000000006    1.4380800000000000   -5.2560250000000002
H      16.4815739999999984   -0.6479310000000000   -4.0950049999999996
H      14.8428620000000002   -0.9406910000000001   -5.8813250000000004
Si     15.2551179999999995   -0.0873030000000000   -4.7300409999999999
O      13.9274839999999998    3.3872380000000000   -4.5975950000000001
O      16.2164189999999984    4.0273529999999997   -5.6812540000000000
Si     15.0233080000000001    2.8810190000000002   -5.6906319999999999
O      12.2752780000000001    5.4306310000000000   -5.1167270000000000
O      12.7123460000000001    4.6539729999999997   -2.6203940000000001
O      14.6517739999999996    5.9190790000000000   -3.9931090000000000
Si     13.3936419999999998    4.8500949999999996   -4.0816299999999996
O      10.4108350000000005    7.2290200000000002   -5.8067089999999997
O      12.8443319999999996    8.0598799999999997   -5.1752820000000002
Si     11.9839500000000001    6.8434990000000004   -5.8863620000000001
O       8.5402620000000002    7.1132470000000003   -3.9294479999999998
O      10.3177219999999998    9.0984890000000007   -3.8605480000000001
Si      9.4317510000000002    8.1311889999999991   -4.8413649999999997
H      11.4965060000000001    5.0099980000000004   -0.4198230000000000
H      10.1592190000000002    4.3836279999999999   -2.3605640000000001
H      11.0882989999999992    6.6364029999999996   -2.2060330000000001
Si     11.3182209999999994    5.1968249999999996   -1.8876299999999999
H       7.9517449999999998    5.8560889999999999   -1.7957609999999999
H       6.1689179999999997    7.0612380000000003   -2.9350710000000002
H       7.8942319999999997    8.2924939999999996   -1.7110060000000000
Si      7.6134430000000002    7.0960260000000002   -2.5599660000000002
H       6.4777649999999998    6.5779639999999997  -11.8728610000000003
H       8.3134800000000002    5.1544720000000002  -11.0546600000000002
H      10.3872040000000005    3.9014300000000000  -12.6315670000000004
Si      7.9514350000000000    6.4285399999999999  -11.7433329999999998
H      12.0358239999999999    4.6671899999999997  -14.2690629999999992
H       8.5644910000000003    6.4104469999999996  -13.1096629999999994
Si     11.6090599999999995    4.7311740000000002  -12.8421699999999994
H       6.0368729999999999   10.7893980000000003   -9.7156070000000003
H      11.3332010000000007    6.1466159999999999  -12.4511210000000005
O       8.5867380000000004    7.7349059999999996  -10.9459289999999996
Si      5.5842440000000000   10.6345820000000000   -8.3007159999999995
O      12.8603600000000000    4.1220109999999996  -11.9251839999999998
H       4.8163840000000002   11.8367880000000003   -7.8671360000000004
H       4.6776020000000003    9.4419889999999995   -8.2240430000000000
Si      9.4098659999999992    8.1755720000000007   -9.6242470000000004
O       6.8634209999999998   10.4506720000000008   -7.2777890000000003
O      10.3695339999999998    9.4904189999999993   -9.9218740000000007
Si     13.9437920000000002   -0.6612400000000000   -9.0574069999999995
Si     13.3723030000000005    4.3386899999999997  -10.3987970000000001
O       8.3836449999999996    8.6179769999999998   -8.4453779999999998
H      14.8694629999999997   -1.8280190000000001   -9.0990350000000007
O      10.3402539999999998    6.9112270000000002   -9.1327970000000001
O      14.7142450000000000    5.3039379999999996  -10.3625570000000007
Si      8.3206640000000007    9.7187040000000007   -7.2261749999999996
O      12.1925410000000003    5.0650120000000003   -9.5385369999999998
O      14.8849380000000000    0.6879450000000000   -8.7971140000000005
O       9.5520189999999996   10.7903690000000001   -7.3760859999999999
O      13.7108080000000001    2.8695290000000000   -9.7542969999999993
Si     11.9182699999999997    6.5794980000000001   -8.9868299999999994
Si     14.7855860000000003    2.3011029999999999   -8.6680150000000005
O      12.7226169999999996    7.6999449999999996   -9.9013709999999993
O      16.2841139999999989    2.9723240000000000   -8.9443809999999999
O       8.4061900000000005    8.9815240000000003   -5.7759570000000000
O      12.4180390000000003    6.6568990000000001   -7.4426899999999998
O      14.3520660000000007    2.7928920000000002   -7.1799229999999996
H      16.7994710000000005    4.0414599999999998   -6.4548059999999996
H      15.4565920000000006    5.6091910000000000   -4.4479660000000001
H      13.6742830000000009    7.7677589999999999   -4.7571519999999996
H      11.2553760000000000    9.1770569999999996   -4.1056770000000000
H      11.2762039999999999    9.2709170000000007  -10.2015429999999991
H      15.5286969999999993    4.8796889999999999  -10.0471909999999998
H      10.0147080000000006   10.7239009999999997   -8.2317499999999999
H      13.6627810000000007    7.5222829999999998  -10.0619599999999991
H      16.8808979999999984    2.4520330000000001   -9.5010709999999996
H      13.2267539999999997   -0.5203230000000000  -10.3596149999999998
H      12.9598770000000005   -0.8129600000000000   -7.9472860000000001
O      12.0508670000000002    1.0381000000000000   -5.5802620000000003
C      11.1488390000000006    1.9657279999999999   -6.0301309999999999
C      10.9844240000000006    2.1032329999999999   -7.4124030000000003
C      10.0666750000000000    3.0237790000000002   -7.9001929999999998
C       9.2901399999999992    3.8262109999999998   -7.0377939999999999
C       9.4920329999999993    3.6852429999999998   -5.6483059999999998
C      10.4022910000000000    2.7644679999999999   -5.1510290000000003
C       8.2974599999999992    4.7111270000000003   -7.6189400000000003
C       7.4245650000000003    5.5150180000000004   -6.9740349999999998
C       6.4566749999999997    6.3087730000000004   -7.7368850000000000
O       6.3001139999999998    6.3087369999999998   -8.9504439999999992
O       5.7000529999999996    7.0913760000000003   -6.9099440000000003
H      12.0995709999999992    1.0991249999999999   -4.6112719999999996
H      11.5696860000000008    1.4832250000000000   -8.0889959999999999
H       9.9364469999999994    3.1324850000000000   -8.9780890000000007
H       8.9366909999999997    4.3095759999999999   -4.9478000000000000
H      10.5492329999999992    2.6657630000000001   -4.0727929999999999
H       8.2385359999999999    4.7059009999999999   -8.7116360000000004
H       7.3969300000000002    5.6184130000000003   -5.8898130000000002
H       5.1175519999999999    7.6178840000000001   -7.4944179999999996
