   93
 
H      13.0210270000000001   -0.4006470000000000   -4.9448129999999999
O      15.0780390000000004    1.0395509999999999   -5.5706140000000000
H      14.6854639999999996    0.0541950000000000   -3.2146650000000001
H      15.2279269999999993   -1.4426660000000000   -5.0764360000000002
Si     14.4780960000000007   -0.2222960000000000   -4.6655829999999998
O      13.5496999999999996    3.1146159999999998   -4.9287760000000000
O      15.9524980000000003    3.5836570000000001   -5.9180279999999996
Si     14.6620340000000002    2.5557820000000002   -5.9749309999999998
O      11.9403939999999995    5.2399630000000004   -5.1694920000000000
O      12.5603759999999998    4.3162950000000002   -2.7740580000000001
O      14.4338979999999992    5.5722969999999998   -4.2565330000000001
Si     13.1255430000000004    4.5629869999999997   -4.2752189999999999
O      10.2190100000000008    7.1477480000000000   -5.9436559999999998
O      12.6297940000000004    7.8473449999999998   -5.1823249999999996
Si     11.7654099999999993    6.6663759999999996   -5.9567399999999999
O       8.8251469999999994    7.6838080000000000   -3.7756129999999999
O      10.2730969999999999    9.6646699999999992   -4.9709399999999997
Si      9.3527100000000001    8.3142449999999997   -5.1789319999999996
H      11.4047520000000002    4.5225910000000002   -0.5219210000000000
H       9.9869579999999996    4.5101959999999996   -2.5206520000000001
H      11.3475669999999997    6.4688260000000000   -2.0023260000000001
Si     11.2760999999999996    4.9773920000000000   -1.9348700000000001
H       8.3773730000000004    6.7392490000000000   -1.4636560000000001
H       7.0632929999999998    8.6702890000000004   -2.1667040000000002
H       9.4231010000000008    8.9379620000000006   -1.5962040000000000
Si      8.4112489999999998    8.0292359999999992   -2.2153939999999999
H       7.0141929999999997    7.7643060000000004  -12.2219510000000007
H       8.7104630000000007    6.0896970000000001  -11.6958629999999992
H      10.6476469999999992    4.6478380000000001  -13.3427380000000007
Si      8.4804960000000005    7.4820140000000004  -12.1917650000000002
H      12.6401710000000005    5.3291250000000003  -14.5858489999999996
H       9.0500340000000001    7.6182749999999997  -13.5650790000000008
Si     11.9749610000000004    5.3213489999999997  -13.2513360000000002
H       5.5174190000000003    9.8045410000000004  -10.0959059999999994
H      11.8001970000000007    6.7214799999999997  -12.7588329999999992
O       9.2427810000000008    8.5767109999999995  -11.2133819999999993
Si      4.9342220000000001    9.8008080000000000   -8.7187920000000005
O      12.9625509999999995    4.4669869999999996  -12.2135689999999997
H       4.1971210000000001   11.0777529999999995   -8.4833119999999997
H       4.0015850000000004    8.6461900000000007   -8.5690690000000007
Si      9.7141549999999999    8.7306390000000000   -9.6593389999999992
O       6.1299149999999996    9.6578429999999997   -7.5843129999999999
O      10.7274440000000002   10.0027629999999998   -9.4597259999999999
Si     13.8933730000000004   -0.7129630000000000   -9.2239140000000006
Si     13.3379610000000000    4.5973550000000003  -10.6389669999999992
O       8.4017959999999992    8.9576759999999993   -8.7342829999999996
H      14.7820889999999991   -1.7543080000000000   -9.8092480000000002
O      10.4404079999999997    7.3250869999999999   -9.2082210000000000
O      14.7163470000000007    5.4849220000000001  -10.4123289999999997
Si      7.7385120000000001    9.6444989999999997   -7.4017819999999999
O      12.1259999999999994    5.3530749999999996   -9.8641100000000002
O      14.6694809999999993    0.7477360000000000   -9.4032380000000000
O       8.2431330000000003   11.1869660000000000   -7.1919490000000001
O      13.5547100000000000    3.0817030000000001  -10.0398320000000005
Si     11.9438569999999995    6.7536969999999998   -9.0342470000000006
Si     14.5623269999999998    2.3192040000000000   -9.0209510000000002
O      12.9539530000000003    7.9155749999999996   -9.6415559999999996
O      16.0813500000000005    3.0009239999999999   -9.0991769999999992
O       8.0723730000000007    8.7090960000000006   -6.0964470000000004
O      12.3128469999999997    6.4561060000000001   -7.4747420000000000
O      14.0287380000000006    2.5447829999999998   -7.4928610000000004
H      16.4796039999999984    3.6406480000000001   -6.7308170000000000
H      15.2233660000000004    5.2173710000000000   -4.7032699999999998
H      13.4892800000000008    7.5579809999999998   -4.8307440000000001
H      11.2179669999999998    9.4739780000000007   -4.8316759999999999
H      11.6571420000000003    9.8124690000000001   -9.6691769999999995
H      15.5038579999999993    4.9835130000000003  -10.1471859999999996
H       9.1650779999999994   11.3023539999999993   -6.9174369999999996
H      13.8608770000000003    7.6239770000000000   -9.8272829999999995
H      16.7445999999999984    2.4855130000000001   -9.5805030000000002
H      12.5821640000000006   -0.6755050000000000   -9.9344210000000004
H      13.6688840000000003   -0.9812270000000000   -7.7717770000000002
N       6.4445040000000002    2.2356479999999999   -7.8999230000000003
C       6.2935449999999999    3.6191070000000001   -8.0780659999999997
O       5.1981650000000004    4.1293590000000000   -8.2756799999999995
N       7.4741039999999996    4.3578710000000003   -8.0092529999999993
C       7.4165919999999996    5.8095860000000004   -8.1711139999999993
C       8.6712190000000007    3.7059410000000002   -7.8110879999999998
N       9.8978649999999995    4.2874660000000002   -7.7462320000000000
C      10.7301149999999996    3.2667950000000001   -7.5412100000000004
N      10.1034179999999996    2.0634570000000001   -7.4708769999999998
C      10.7231140000000007    0.7646550000000000   -7.2495680000000000
C       8.7521959999999996    2.3258160000000001   -7.6481649999999997
C       7.6068110000000004    1.4643619999999999   -7.6818920000000004
O       7.5579130000000001    0.2406310000000000   -7.5535779999999999
H       5.5708469999999997    1.7162729999999999   -7.9485260000000002
H       6.5907109999999998    6.2115999999999998   -7.5746310000000001
H       8.3713270000000009    6.2187590000000004   -7.8350419999999996
H       7.2531119999999998    6.0767579999999999   -9.2245659999999994
H      11.8053089999999994    3.3570739999999999   -7.4371840000000002
H      10.2734869999999994    0.2711650000000000   -6.3795229999999998
H      10.5852979999999999    0.1171820000000000   -8.1249129999999994
H      11.7908570000000008    0.9235719999999999   -7.0677000000000003
