   96
 
H      12.4753690000000006    0.0583350000000000   -5.0183350000000004
O      14.8068170000000006    1.0651770000000000   -5.5228330000000003
H      14.3431630000000006   -0.5962640000000000   -3.5974650000000001
H      14.2322649999999999   -1.3750329999999999   -5.9172339999999997
Si     13.9387600000000003   -0.2460610000000000   -4.9908859999999997
O      13.5296950000000002    3.0923479999999999   -4.3975070000000001
O      16.1479970000000002    3.1611189999999998   -4.3988220000000000
Si     14.8395960000000002    2.6742780000000002   -5.2762739999999999
O      11.7782040000000006    5.1479809999999997   -4.3633629999999997
O      12.5570989999999991    3.9805229999999998   -2.1049859999999998
O      14.2502060000000004    5.5407260000000003   -3.5811829999999998
Si     13.0190249999999992    4.4362450000000004   -3.5867030000000000
O      10.4809199999999993    6.8822089999999996   -6.0052750000000001
O      13.0920450000000006    6.5714709999999998   -6.2237879999999999
Si     11.6435040000000001    5.7973049999999997   -5.8838900000000001
O       8.8691619999999993    7.8514020000000002   -4.2816660000000004
O      10.0638919999999992    9.3092550000000003   -6.4645339999999996
Si      9.1550999999999991    8.0379489999999993   -5.8973120000000003
H      11.6853870000000004    3.0847470000000001    0.0962290000000000
H      10.0952870000000008    3.2546840000000001   -1.7551920000000001
H      10.8833699999999993    5.2727180000000002   -0.6186940000000000
Si     11.2553629999999991    3.9002479999999999   -1.0761639999999999
H       9.1441599999999994    5.6299910000000004   -3.0013100000000001
H       8.5288590000000006    7.6349030000000004   -1.7802490000000000
H      10.8019900000000000    7.3751610000000003   -2.6103429999999999
Si      9.3613490000000006    7.1066820000000002   -2.9028580000000002
H       7.1076660000000000    7.4283200000000003  -13.1976770000000005
H       8.1408649999999998    5.4194160000000000  -12.2888920000000006
H      10.4529080000000008    4.4353600000000002  -10.8359310000000004
Si      8.2367939999999997    6.9089859999999996  -12.3707680000000000
H      11.5239089999999997    2.8042799999999999  -12.3116129999999995
H       9.5364129999999996    7.2727269999999997  -13.0182450000000003
Si     11.5437700000000003    4.2162970000000000  -11.8322249999999993
H       5.1624119999999998   10.3099690000000006  -10.1218930000000000
H      11.3692860000000007    5.1500490000000001  -12.9830649999999999
O       8.1426770000000008    7.5204430000000002  -10.8412659999999992
Si      4.6837429999999998    9.8897530000000007   -8.7699669999999994
O      13.0283210000000000    4.4659719999999998  -11.1228549999999995
H       3.4658250000000002   10.6708970000000001   -8.4023389999999996
H       4.3366530000000001    8.4340100000000007   -8.8081669999999992
Si      8.9455390000000001    8.6329150000000006   -9.9474450000000001
O       5.8241290000000001   10.1765600000000003   -7.6082859999999997
O       9.4463179999999998    9.8920770000000005  -10.8730100000000007
Si     12.8122939999999996    1.2356769999999999   -9.0840460000000007
Si     13.6658380000000008    5.5518330000000002  -10.0838850000000004
O       7.9123400000000004    9.1252549999999992   -8.8124359999999999
H      12.9761950000000006    0.2188410000000000  -10.1614020000000007
O      10.2555580000000006    7.8762580000000000   -9.2833699999999997
O      14.6640800000000002    6.6259660000000000  -10.8318200000000004
Si      7.4305950000000003    9.9137199999999996   -7.4452680000000004
O      12.4546609999999998    6.4167040000000002   -9.4282800000000009
O      14.2451399999999992    2.0584509999999998   -8.9658370000000005
O       8.1532999999999998   11.3741470000000007   -7.2860889999999996
O      14.4959910000000001    4.7393700000000001   -8.9382409999999997
Si     11.8762720000000002    7.9515079999999996   -9.2909469999999992
Si     15.0435850000000002    3.3291469999999999   -8.3376000000000001
O      12.2684130000000007    8.8815259999999991  -10.5971609999999998
O      16.6477259999999987    3.1618499999999998   -8.6472809999999996
O       7.6577359999999999    8.9445899999999998   -6.1371750000000000
O      12.4680370000000007    8.6068540000000002   -7.9090670000000003
O      14.8511530000000000    3.4355050000000000   -6.7194219999999998
H      17.0028080000000017    3.1593900000000001   -4.8518699999999999
H      15.1367860000000007    5.1743800000000002   -3.4300579999999998
H      13.7772579999999998    6.4767919999999997   -5.5378200000000000
H      10.9578430000000004    9.0813950000000006   -6.7922880000000001
H      10.3934329999999999    9.8815320000000000  -11.0925279999999997
H      15.5843950000000007    6.3607980000000000  -10.9604440000000007
H       9.0581200000000006   11.2631850000000000   -6.9471499999999997
H      13.2108629999999998    8.9678070000000005  -10.8019710000000000
H      16.8875549999999990    2.4992250000000000   -9.3084889999999998
H      11.6979819999999997    2.1671600000000000   -9.4227570000000007
H      12.5163279999999997    0.5643980000000000   -7.7846770000000003
O      10.0465309999999999    1.6210100000000001   -4.3482209999999997
C       9.2439180000000007    2.5428510000000002   -4.9193280000000001
C       9.6799929999999996    3.2830200000000000   -6.0336230000000004
C       8.8857630000000007    4.2730759999999997   -6.5605580000000003
C       7.7070040000000004    4.6582470000000002   -5.9055169999999997
C       7.3756300000000001    6.0449510000000002   -6.1683560000000002
O       8.2216579999999997    6.7181509999999998   -6.8542719999999999
O       6.3493009999999996    6.6426720000000001   -5.6064990000000003
C       7.2217079999999996    3.9102519999999998   -4.8147399999999996
C       7.9764569999999999    2.8314830000000000   -4.3424490000000002
O       7.6561490000000001    2.0579100000000001   -3.2706019999999998
C       6.4863609999999996    2.4060890000000001   -2.5297230000000002
O      10.9632389999999997    3.0759539999999999   -6.4614729999999998
C      11.5866910000000001    4.2617110000000000   -7.0427879999999998
H      10.9055809999999997    1.6568890000000001   -4.8179819999999998
H       9.2310140000000001    4.8750540000000004   -7.3922520000000000
H       6.5213989999999997    7.6353499999999999   -5.7535629999999998
H       6.3267939999999996    4.2359749999999998   -4.2895719999999997
H       6.5681979999999998    3.4212210000000001   -2.1088840000000002
H       5.5795709999999996    2.3354089999999998   -3.1518830000000002
H       6.4273119999999997    1.6764390000000000   -1.7157610000000001
H      12.8476900000000001    7.9497549999999997   -7.2711180000000004
H      12.6289669999999994    3.9668549999999998   -7.1890409999999996
H      11.1658650000000002    4.4744770000000003   -8.0363550000000004
