  115
 
H      10.4082070000000009    0.4301360000000000   -4.7168619999999999
O      12.9715050000000005    0.6379960000000000   -5.0764550000000002
H      11.9039929999999998   -0.0624950000000000   -2.8410160000000002
H      11.7990960000000005   -1.5909009999999999   -4.7387090000000001
Si     11.7167709999999996   -0.1613190000000000   -4.3195690000000004
O      12.4596409999999995    3.2238829999999998   -4.7389450000000002
O      14.8547499999999992    2.5192180000000000   -5.5770929999999996
Si     13.2489349999999995    2.1315750000000002   -5.6485110000000001
O      11.9089220000000005    5.8267400000000000   -4.9372600000000002
O      12.1192840000000004    4.7075839999999998   -2.5625599999999999
O      14.3195200000000007    5.0660109999999996   -4.0562779999999998
Si     12.7171850000000006    4.6950979999999998   -4.0735140000000003
O      10.8280870000000000    8.0467770000000005   -5.9132309999999997
O      13.2213740000000008    8.1813699999999994   -4.8417550000000000
Si     12.2163559999999993    7.2170300000000003   -5.7295119999999997
O       9.0100630000000006    8.0671610000000005   -4.0152590000000004
O      10.8078730000000007   10.0941080000000003   -4.1411899999999999
Si      9.8984710000000007    9.0354220000000005   -4.9956209999999999
H      10.6191540000000000    4.6202410000000000   -0.5155880000000000
H       9.5313850000000002    4.8745019999999997   -2.6978529999999998
H      10.7652269999999994    6.7364410000000001   -1.7171120000000000
Si     10.7106309999999993    5.2493530000000002   -1.8638900000000000
H       7.4964160000000000    6.8614090000000001   -2.3743069999999999
H       6.7898100000000001    9.0746249999999993   -3.1383120000000000
H       8.6539769999999994    8.8658140000000003   -1.5816840000000001
Si      7.9559839999999999    8.2306609999999996   -2.7381750000000000
H       6.8974460000000004    7.1244690000000004  -11.1094760000000008
H       8.7980070000000001    5.6026049999999996  -11.1695270000000004
H      10.7286500000000000    4.3452650000000004  -12.8401409999999991
Si      8.3045290000000005    6.9527349999999997  -11.5796150000000004
H      12.5361259999999994    5.3831629999999997  -14.1158409999999996
H       8.3732659999999992    7.0746130000000003  -13.0641610000000004
Si     11.9420830000000002    5.2120170000000003  -12.7593969999999999
H       5.6957519999999997    9.3163730000000005   -9.6832820000000002
H      11.5596630000000005    6.5459209999999999  -12.2032489999999996
O       9.2629920000000006    8.1384740000000004  -10.9356030000000004
Si      5.4043659999999996   10.0620639999999995   -8.4229760000000002
O      13.0861029999999996    4.4993530000000002  -11.7985469999999992
H       5.1579009999999998   11.5019799999999996   -8.7289820000000002
H       4.2192939999999997    9.4754780000000007   -7.7347530000000004
Si     10.0104349999999993    8.5414849999999998   -9.5482619999999994
O       6.6814179999999999    9.9213539999999991   -7.3587559999999996
O      10.9055789999999995    9.9092640000000003   -9.7331199999999995
Si     11.2062069999999991   -0.7401540000000000   -8.8034009999999991
Si     13.4407390000000007    4.2253509999999999  -10.2367310000000007
O       8.8765959999999993    8.8415959999999991   -8.4160990000000009
H      11.6722520000000003   -2.1299350000000001   -9.0928210000000007
O      10.9316370000000003    7.2791860000000002   -9.0725130000000007
O      15.0696300000000001    4.2787759999999997  -10.0383709999999997
Si      8.3066329999999997   10.0504420000000003   -7.4653179999999999
O      12.7281860000000009    5.3553819999999996   -9.3094129999999993
O      12.5499729999999996    0.2257950000000000   -9.0152859999999997
O       8.6704100000000004   11.5144870000000008   -8.1018640000000008
O      12.8555659999999996    2.7565650000000002   -9.8020700000000005
Si     12.4747059999999994    6.8604870000000000   -8.7791090000000001
Si     13.1987279999999991    1.6586740000000000   -8.6521190000000008
O      13.3692589999999996    7.9796310000000004   -9.6095919999999992
O      14.8611330000000006    1.4988109999999999   -8.5426649999999995
O       8.8915199999999999    9.8767160000000001   -5.9540050000000004
O      12.8590250000000008    6.9252430000000000   -7.1963670000000004
O      12.7201900000000006    2.2302149999999998   -7.1986439999999998
H      15.3762889999999999    2.2138420000000001   -6.3375709999999996
H      14.8852010000000003    4.4021229999999996   -4.4906839999999999
H      14.0015319999999992    7.7465929999999998   -4.4645580000000002
H      11.7262000000000004    9.8148750000000007   -3.9926420000000000
H      11.8449980000000004    9.7562780000000000   -9.9293949999999995
H      15.4538360000000008    3.4878860000000000   -9.6274789999999992
H       9.5231549999999991   11.5683659999999993   -8.5622140000000009
H      14.3261810000000001    7.9736799999999999   -9.4704099999999993
H      15.2249510000000008    0.6940390000000000   -8.9381100000000000
H      10.1402710000000003   -0.3575670000000000   -9.7689520000000005
H      10.7238150000000001   -0.6573290000000001   -7.3971989999999996
C       7.4680879999999998    5.3138569999999996   -6.6165539999999998
C       7.9463600000000003    2.8354140000000001   -6.7832280000000003
C       8.8216420000000006    3.0438220000000000   -8.0255030000000005
C       9.3679839999999999    4.4829530000000002   -8.1006599999999995
C       5.3009170000000001   -3.4105150000000002   -4.1999129999999996
C       5.3034730000000003   -3.2858100000000001   -6.6178340000000002
C       4.6032869999999999   -4.4848530000000002   -6.6829510000000001
H       8.4217530000000007    6.3410250000000001   -5.1944340000000002
H      10.6083879999999997    2.5644999999999998   -7.5028560000000004
H      10.0192259999999997    4.8672630000000003   -6.2981160000000003
H       4.4554989999999997   -4.8746900000000002   -2.3532850000000001
H       3.3770799999999999   -6.6176370000000002   -4.6625069999999997
C       5.6600989999999998   -2.7190270000000001   -5.3766160000000003
C       4.5927009999999999   -4.6011210000000000   -4.2627879999999996
C       4.2349160000000001   -5.1500649999999997   -5.5092460000000001
O       5.4670170000000002    6.4282579999999996   -7.4450519999999996
O       7.7399810000000002    1.0228870000000001   -4.7600350000000002
C       6.8596919999999999    3.9034380000000000   -6.6137990000000002
C       8.2785250000000001    5.5332169999999996   -7.9173929999999997
O       8.3223690000000001    5.4069110000000000   -5.4632069999999997
O       9.9113240000000005    2.1291069999999999   -8.0366499999999998
O      10.4346540000000001    4.6363360000000000   -7.1553240000000002
O       6.5763889999999998    7.3386459999999998   -5.6930800000000001
O       4.1860670000000004   -5.3307140000000004   -3.1657060000000001
O       3.5395530000000002   -6.3190759999999999   -5.5761399999999997
C       6.3680159999999999    6.3840950000000003   -6.6343410000000000
C       7.2800149999999997    0.7243630000000000   -5.8509539999999998
O       7.3045720000000003    1.5486720000000000   -6.9429730000000003
H       5.9789610000000000    8.0876889999999992   -5.8925349999999996
C       6.6069199999999997   -0.5353550000000000   -6.1988029999999998
C       6.3536809999999999   -1.4506399999999999   -5.2384339999999998
H       8.5757049999999992    2.7911109999999999   -5.8828459999999998
H       6.3286400000000000    3.7323610000000000   -5.6670270000000000
H       6.1304439999999998    3.8309950000000002   -7.4331300000000002
H       8.2144329999999997    2.8364120000000002   -8.9230450000000001
H       9.8340189999999996    4.6110920000000002   -9.0895840000000003
H       7.5794420000000002    5.5025769999999996   -8.7660129999999992
H       8.7342340000000007    6.5295790000000000   -7.8947380000000003
H       6.2980660000000004   -0.6572370000000000   -7.2372620000000003
H       6.6848999999999998   -1.1885810000000001   -4.2277469999999999
H       5.5716120000000000   -2.9899149999999999   -3.2274460000000000
H       5.5838660000000004   -2.7859820000000002   -7.5447860000000002
H       4.3281850000000004   -4.9282769999999996   -7.6400730000000001
