   93
 
H      11.3891340000000003    0.2939370000000000   -3.6996150000000001
O      13.2136019999999998    0.1227570000000000   -5.5164510000000000
H      12.9026829999999997   -1.6182300000000001   -3.6653609999999999
H      11.1742849999999994   -1.4342790000000001   -5.3956350000000004
Si     12.1459989999999998   -0.6869350000000000   -4.5470610000000002
O      12.7752400000000002    2.6814700000000000   -5.0950650000000000
O      15.1686879999999995    1.9653520000000000   -5.9529019999999999
Si     13.5566659999999999    1.6223280000000000   -6.0545929999999997
O      12.0448930000000001    5.2278520000000004   -5.4587100000000000
O      12.5605949999999993    4.3244769999999999   -3.0292789999999998
O      14.5693950000000001    4.6766439999999996   -4.8057650000000001
Si     12.9963189999999997    4.2289770000000004   -4.5933080000000004
O      10.9144389999999998    7.4894660000000002   -6.2893730000000003
O      13.4798760000000009    7.5063839999999997   -5.6943999999999999
Si     12.2590459999999997    6.5935370000000004   -6.3312850000000003
O       9.3699899999999996    8.3907240000000005   -4.3075140000000003
O      11.5871049999999993    9.7291489999999996   -4.9565820000000000
Si     10.3443729999999992    8.8356519999999996   -5.5288620000000002
H      12.2946770000000001    5.3471789999999997   -0.7155780000000000
H      10.2877130000000001    5.0772440000000003   -2.0649510000000002
H      11.9050799999999999    6.8085789999999999   -2.6479720000000002
Si     11.7403670000000009    5.4310390000000002   -2.0964269999999998
H       7.8047219999999999    7.3138220000000000   -2.6229480000000001
H       6.9793089999999998    7.5584709999999999   -4.9068490000000002
H       7.2142970000000002    9.5170829999999995   -3.4817640000000001
Si      7.8001959999999997    8.1878630000000001   -3.8321000000000001
H       6.0642269999999998    7.0800330000000002  -10.6833440000000000
H       7.3336829999999997    5.0081800000000003  -10.8652549999999994
H      10.0586450000000003    4.6420349999999999  -12.3741450000000004
Si      7.1937080000000000    6.4024409999999996  -11.3890399999999996
H      11.0026290000000007    3.6562329999999998  -14.4128959999999999
H       6.9345359999999996    6.3606470000000002  -12.8562270000000005
Si     11.2987780000000004    4.4307660000000002  -13.1770519999999998
H       4.9182759999999996    9.1238840000000003   -8.7912260000000000
H      11.8747810000000005    5.7626160000000004  -13.5353379999999994
O       8.6003659999999993    7.2419409999999997  -11.1551039999999997
Si      5.5283090000000001    8.7222500000000007   -7.4870869999999998
O      12.4223470000000002    3.5757539999999999  -12.2999379999999991
H       4.5983660000000004    9.0481400000000001   -6.3684209999999997
H       5.8011889999999999    7.2525870000000001   -7.5086529999999998
Si      9.5843659999999993    7.7456519999999998   -9.9595459999999996
O       6.9281040000000003    9.5702099999999994   -7.2270770000000004
O      10.5276099999999992    8.9947830000000000  -10.4632679999999993
Si     12.4506359999999994   -1.6568620000000001   -8.7710240000000006
Si     13.0763789999999993    3.5654680000000001  -10.8191679999999995
O       8.6790260000000004    8.2481819999999999   -8.7036719999999992
H      13.2098200000000006   -2.4606230000000000   -7.7632729999999999
O      10.4974860000000003    6.4746240000000004   -9.4850940000000001
O      14.5850399999999993    4.2360490000000004  -10.9224560000000004
Si      8.4327600000000000    9.6300709999999992   -7.8412639999999998
O      12.1622710000000005    4.4364090000000003   -9.7811800000000009
O      13.4364190000000008   -0.4005790000000000   -9.2418329999999997
O       8.5425160000000009   10.9571120000000004   -8.7912230000000005
O      13.1619060000000001    2.0289160000000002  -10.2761309999999995
Si     12.0456029999999998    6.0103049999999998   -9.3745630000000002
Si     13.7148409999999998    1.1734420000000001   -9.0158240000000003
O      12.8775709999999997    6.9805539999999997  -10.4236260000000005
O      15.3603210000000008    1.4219029999999999   -8.8522560000000006
O       9.5088279999999994    9.7129490000000001   -6.6200359999999998
O      12.6191160000000000    6.1731179999999997   -7.8623750000000001
O      13.0761079999999996    1.7415929999999999   -7.6181450000000002
H      15.6420069999999996    1.7999730000000000   -6.7907679999999999
H      15.1518400000000000    3.9563130000000002   -5.1093560000000000
H      14.2767830000000000    7.0162740000000001   -5.4346719999999999
H      12.4562969999999993    9.2975650000000005   -5.0161340000000001
H      11.4218609999999998    8.7474930000000004  -10.7523610000000005
H      15.2631750000000004    3.8428740000000001  -10.3548380000000009
H       9.3447569999999995   11.0186469999999996   -9.3319069999999993
H      13.7906730000000000    6.7263700000000002  -10.6264020000000006
H      15.9243959999999998    0.8193279999999999   -9.3579650000000001
H      12.1417920000000006   -2.4955250000000002   -9.9578520000000008
H      11.2112780000000001   -1.1389560000000001   -8.1242839999999994
O       9.7225730000000006    2.7336140000000002   -4.1412639999999996
C       9.4819840000000006    3.0726399999999998   -5.4539780000000002
C       9.7455119999999997    2.2608570000000001   -6.5437159999999999
C       9.4907819999999994    2.7097910000000001   -7.8578010000000003
C       8.9470340000000004    3.9995419999999999   -8.0312590000000004
C       8.6743159999999992    4.8149899999999999   -6.9413309999999999
C       8.9404660000000007    4.3595150000000000   -5.6458539999999999
O       8.7037340000000007    5.1610709999999997   -4.5770330000000001
C       9.8187610000000003    1.8230850000000001   -8.9512319999999992
C       9.6779480000000007    2.0358749999999999  -10.2810380000000006
C      10.1126520000000006    1.0114529999999999  -11.2287300000000005
O      10.6299440000000001   -0.0674130000000000  -10.9689770000000006
O       9.8831840000000000    1.3966840000000000  -12.5270799999999998
H      10.3596459999999997    1.9988699999999999   -4.1017760000000001
H      10.1595960000000005    1.2613570000000001   -6.3922980000000003
H       8.7520570000000006    4.3748649999999998   -9.0338510000000003
H       8.2821060000000006    5.8229819999999997   -7.0748249999999997
H       9.0224469999999997    4.6972230000000001   -3.7783880000000001
H      10.2436450000000008    0.8564500000000000   -8.6639660000000003
H       9.2622850000000003    2.9541559999999998  -10.6953510000000005
H      10.2251449999999995    0.6666360000000000  -13.0779730000000001
