  115
 
H      11.8326569999999993    0.6225700000000000   -4.6273249999999999
O      14.3428550000000001    0.8201370000000000   -5.1931900000000004
H      13.3794070000000005   -1.1351739999999999   -3.8933890000000000
H      12.8181960000000004   -0.9606610000000000   -6.2478600000000002
Si     13.0258299999999991   -0.1862430000000000   -4.9900969999999996
O      13.3235729999999997    3.3094220000000001   -5.2695179999999997
O      15.7475489999999994    2.9931800000000002   -4.4248240000000001
Si     14.6449300000000004    2.3813840000000002   -5.5032269999999999
O      11.9719010000000008    5.6007720000000001   -5.1936819999999999
O      11.7404379999999993    3.8731140000000002   -3.2076929999999999
O      14.0460919999999998    5.2642009999999999   -3.5644740000000001
Si     12.7770980000000005    4.4920159999999996   -4.2905400000000000
O      10.7419750000000001    7.9287029999999996   -5.6006289999999996
O      13.0964340000000004    7.9202909999999997   -4.3712989999999996
Si     12.1848170000000007    7.1981390000000003   -5.5247219999999997
O       8.9937690000000003    7.7733040000000004   -3.6316259999999998
O      10.2581500000000005   10.1296210000000002   -4.1028039999999999
Si      9.6204879999999999    8.7700809999999993   -4.7598469999999997
H       9.8158860000000008    3.0937610000000002   -1.7470370000000000
H       9.2749919999999992    4.5625710000000002   -3.6348729999999998
H      10.4087449999999997    5.4608290000000004   -1.6721740000000000
Si     10.2586060000000003    4.2642879999999996   -2.5562190000000000
H       7.5799130000000003    6.3216010000000002   -2.0960459999999999
H       6.6202769999999997    8.4403620000000004   -2.8394879999999998
H       8.4298859999999998    8.4233010000000004   -1.1996060000000000
Si      7.8740059999999996    7.7498839999999998   -2.4119000000000002
H       7.0787820000000004    5.9029800000000003  -11.3471790000000006
H       9.2951449999999998    4.8406110000000000  -11.3307929999999999
H      11.4732319999999994    4.6221459999999999  -13.3334180000000000
Si      8.5316980000000004    6.0917539999999999  -11.6095600000000001
H      13.6155399999999993    5.7966020000000000  -13.4781040000000001
H       8.7450890000000001    6.4821660000000003  -13.0353110000000001
Si     12.4607530000000004    5.4574900000000000  -12.5938839999999992
H       5.9356720000000003    8.2471800000000002   -9.8389089999999992
H      11.8070690000000003    6.7196639999999999  -12.1312619999999995
O       9.1125520000000009    7.3343699999999998  -10.6811430000000005
Si      5.2758979999999998    8.5701169999999998   -8.5368720000000007
O      12.9770500000000002    4.5828709999999999  -11.2877120000000009
H       4.3454899999999999    9.7233440000000009   -8.7135750000000005
H       4.5202570000000000    7.3824889999999996   -8.0438670000000005
Si      9.8682789999999994    7.8853489999999997   -9.3701849999999993
O       6.4137300000000002    8.9673999999999996   -7.3931149999999999
O      10.4721530000000005    9.3985099999999999   -9.6279199999999996
Si     14.2969460000000002   -0.5578160000000000   -9.7942590000000003
Si     14.0093139999999998    4.6010510000000000  -10.0321449999999999
O       8.7917470000000009    8.0004749999999998   -8.1288149999999995
H      15.4505130000000008   -1.0204489999999999  -10.6271240000000002
O      11.0655160000000006    6.8516500000000002   -8.9328319999999994
O      15.4926709999999996    5.1374969999999998  -10.4815470000000008
Si      8.0101899999999997    9.2546060000000008   -7.3592810000000002
O      13.4094619999999995    5.5834659999999996   -8.8651420000000005
O      14.8400900000000000    0.6079580000000000   -8.7452400000000008
O       8.3467909999999996   10.6665770000000002   -8.1057129999999997
O      14.0864740000000008    3.0891030000000002   -9.4256910000000005
Si     12.6521070000000009    6.9814160000000003   -8.5612549999999992
Si     15.1534289999999991    2.1873700000000000   -8.5880880000000008
O      13.1991879999999995    8.2250770000000006   -9.5075240000000001
O      16.6110870000000013    2.6021030000000001   -9.2702380000000009
O       8.4528809999999996    9.2373139999999996   -5.7912780000000001
O      12.8884200000000000    7.3408090000000001   -6.9926750000000002
O      15.2349750000000004    2.5762529999999999   -7.0063740000000001
H      16.5686259999999983    2.5018289999999999   -4.2902509999999996
H      14.8712879999999998    4.7441120000000003   -3.5709819999999999
H      13.7122259999999994    7.3125349999999996   -3.9201220000000001
H      11.0900750000000006   10.0171220000000005   -3.6206589999999998
H      11.4311860000000003    9.4243769999999998   -9.7983510000000003
H      16.2105549999999994    4.5094190000000003  -10.2861049999999992
H       9.1760680000000008   10.6708759999999998   -8.6180679999999992
H      14.1281130000000008    8.4791170000000005   -9.4161789999999996
H      17.4093599999999995    2.2628860000000000   -8.8440460000000005
H      13.2367120000000007   -0.0046060000000000  -10.6849170000000004
H      13.7794629999999998   -1.6915670000000000   -8.9811789999999991
C       9.4357019999999991    3.3010980000000001   -7.4920660000000003
C       9.3136690000000009    0.8087460000000000   -7.2305780000000004
C      10.2164020000000004    0.5954720000000000   -8.4562849999999994
C      11.1651000000000007    1.8017310000000000   -8.6056019999999993
C       7.4373860000000001   -5.4328760000000003   -4.0643159999999998
C       6.0631909999999998   -4.9153460000000004   -5.9892919999999998
C       5.3272830000000004   -6.0753130000000004   -5.7780810000000002
H      10.3994029999999995    4.3298350000000001   -6.1128539999999996
H      11.5521530000000006   -0.5431760000000000   -7.6303049999999999
H      11.7147749999999995    2.3825360000000000   -6.8239190000000001
H       7.6644040000000002   -7.1731280000000002   -2.2768739999999998
H       5.2822579999999997   -8.5016339999999992   -3.7173400000000001
C       7.1312850000000001   -4.5670029999999997   -5.1366930000000002
C       6.7017730000000002   -6.5879370000000002   -3.8493290000000000
C       5.6360229999999998   -6.9207080000000003   -4.7075829999999996
O       7.8871349999999998    4.7497769999999999   -8.6809750000000001
O       9.7101810000000004   -1.1509550000000000   -5.4132730000000002
C       8.4939049999999998    2.0929169999999999   -7.3495109999999997
C      10.3856909999999996    3.1130960000000001   -8.7032260000000008
O      10.2037659999999999    3.3864930000000002   -6.2767289999999996
O      10.9453469999999999   -0.6205190000000000   -8.3908679999999993
O      12.1046949999999995    1.8092680000000001   -7.5187929999999996
O       8.9680370000000007    5.5513490000000001   -6.8565909999999999
O       6.9281829999999998   -7.4847390000000003   -2.8260529999999999
O       4.9125199999999998   -8.0556160000000006   -4.5012800000000004
C       8.6478420000000007    4.5906060000000002   -7.7458010000000002
C       8.7470020000000002   -1.2486130000000000   -6.1595579999999996
O       8.4047920000000005   -0.3056500000000000   -7.0945510000000001
H       8.6678569999999997    6.4243839999999999   -7.2195980000000004
C       7.7899870000000000   -2.3624049999999999   -6.1816190000000004
C       7.9391550000000004   -3.3720349999999999   -5.2953989999999997
H       9.9353269999999991    0.8408870000000001   -6.3249730000000000
H       7.8728460000000000    2.2208030000000001   -6.4520039999999996
H       7.8274600000000003    2.0501809999999998   -8.2233780000000003
H       9.5859880000000004    0.5155600000000000   -9.3583829999999999
H      11.7556440000000002    1.6608860000000001   -9.5228830000000002
H       9.7882660000000001    3.1219610000000002   -9.6262410000000003
H      11.0813989999999993    3.9612319999999999   -8.7593890000000005
H       6.9925850000000001   -2.3202240000000001   -6.9236129999999996
H       8.7810530000000000   -3.2703669999999998   -4.6025060000000000
H       8.2640630000000002   -5.1813919999999998   -3.3939330000000001
H       5.8099119999999997   -4.2739620000000000   -6.8332610000000003
H       4.5036160000000001   -6.3504620000000003   -6.4370430000000001
