   93
 
H      13.2197899999999997   -0.2167260000000000   -5.6324560000000004
O      15.3331750000000007    1.2102919999999999   -5.1794539999999998
H      14.6681249999999999   -0.8128480000000000   -3.7565390000000001
H      15.4123000000000001   -1.1968470000000000   -6.0559539999999998
Si     14.6346030000000003   -0.2983990000000000   -5.1547960000000002
O      13.9858890000000002    3.3943979999999998   -4.4945860000000000
O      16.2591119999999982    3.6928000000000001   -5.7612709999999998
Si     14.9308379999999996    2.7170120000000000   -5.6350709999999999
O      12.2455649999999991    5.3451599999999999   -4.9961880000000001
O      13.1439229999999991    5.0016780000000001   -2.5329009999999998
O      14.8101190000000003    5.9558890000000000   -4.4249739999999997
Si     13.5640579999999993    4.9265770000000000   -4.0941919999999996
O      10.4177190000000000    7.0968549999999997   -5.8664540000000001
O      12.9265899999999991    7.9137100000000000   -5.5455030000000001
Si     11.9662369999999996    6.6612879999999999   -5.9690110000000001
O       8.6533960000000008    6.6911839999999998   -3.9741939999999998
O       9.6871740000000006    9.1220339999999993   -4.2075230000000001
Si      9.1913940000000007    7.7993410000000001   -5.0353089999999998
H      12.0432480000000002    5.4123469999999996   -0.2827140000000000
H      10.6934000000000005    4.3609869999999997   -2.0326080000000002
H      11.2473770000000002    6.7370869999999998   -2.1845629999999998
Si     11.7270380000000003    5.3965790000000000   -1.7383919999999999
H       8.3343430000000005    5.7223720000000000   -1.6392580000000001
H       6.3977760000000004    5.8133169999999996   -3.1144720000000001
H       7.2751549999999998    7.8677130000000002   -2.1167530000000001
Si      7.6320379999999997    6.5315409999999998   -2.6802380000000001
H       7.2433069999999997    6.6641630000000003  -12.4969199999999994
H       9.2333809999999996    5.4654569999999998  -11.7332310000000000
H      10.9288170000000004    3.9663179999999998  -13.4447810000000008
Si      8.7152370000000001    6.7563800000000001  -12.2796000000000003
H      13.0706220000000002    4.4470660000000004  -14.5164890000000000
H       9.3995949999999997    7.0522689999999999  -13.5737539999999992
Si     12.2558340000000001    4.6277929999999996  -13.2802089999999993
H       4.4830379999999996    9.6955890000000000   -8.8883720000000004
H      12.0647140000000004    6.0840569999999996  -13.0042249999999999
O       9.0455679999999994    7.9973280000000004  -11.2341999999999995
Si      4.8743520000000000   10.0017870000000002   -7.4778940000000000
O      13.0823210000000003    3.9088110000000000  -12.0285740000000008
H       4.4321140000000003   11.3962889999999994   -7.1697400000000000
H       4.2242870000000003    9.0585810000000002   -6.5271619999999997
Si      9.5234450000000006    8.2666350000000008   -9.7050570000000000
O       6.5177870000000002   10.0020319999999998   -7.3136780000000003
O      10.4981530000000003    9.5967359999999999   -9.5950640000000007
Si     13.8411249999999999   -0.7255480000000000   -9.3487849999999995
Si     13.3393339999999991    4.2524689999999996  -10.4612580000000008
O       8.2243969999999997    8.5744109999999996   -8.7816899999999993
H      14.8690739999999995   -1.6054500000000000   -9.9794750000000008
O      10.3208699999999993    6.9425549999999996   -9.1511060000000004
O      14.6574299999999997    5.2334569999999996  -10.2508490000000005
Si      7.9512140000000002    9.2640340000000005   -7.3170330000000003
O      12.0506019999999996    5.0581079999999998   -9.8788579999999993
O      14.6655960000000007    0.5916940000000001   -8.7416140000000002
O       9.1508920000000007   10.3593869999999999   -6.9988419999999998
O      13.5662850000000006    2.8343859999999999   -9.6798870000000008
Si     11.8568169999999995    6.4424770000000002   -9.0319120000000002
Si     14.5835969999999993    2.2016640000000001   -8.5843880000000006
O      12.7834470000000007    7.6597830000000000   -9.6639649999999993
O      16.1149850000000008    2.8398659999999998   -8.8010110000000008
O       8.0126760000000008    8.1442660000000000   -6.1189689999999999
O      12.2606629999999992    6.1317380000000004   -7.4857189999999996
O      14.1456219999999995    2.6605870000000000   -7.0796039999999998
H      16.7222040000000014    3.6296879999999998   -6.6130370000000003
H      15.5739280000000004    5.5194340000000004   -4.8470259999999996
H      13.8183659999999993    7.6587600000000000   -5.2485160000000004
H       9.8221050000000005    9.9034650000000006   -4.7697490000000000
H      11.4384899999999998    9.4140829999999998   -9.7695699999999999
H      15.4697639999999996    4.7864740000000001   -9.9633230000000008
H       9.7667450000000002   10.4907570000000003   -7.7424309999999998
H      13.7103240000000000    7.4273769999999999   -9.8343799999999995
H      16.7209649999999996    2.2853599999999998   -9.3134160000000001
H      12.8453060000000008   -0.2905000000000000  -10.3684469999999997
H      13.1806289999999997   -1.4473250000000000   -8.2263409999999997
O      11.1077670000000008    2.8098329999999998   -5.8432829999999996
C      10.3642769999999995    3.0103700000000000   -6.9819430000000002
C       9.3942399999999999    3.9896720000000001   -7.1250030000000004
C       8.6581890000000001    4.1069769999999997   -8.3236209999999993
C       8.9421839999999992    3.2122679999999999   -9.3776290000000007
C       9.9044849999999993    2.2190789999999998   -9.2332809999999998
C      10.6085980000000006    2.1032030000000002   -8.0312099999999997
O      11.5362989999999996    1.1200110000000001   -7.8531250000000004
C       7.6267550000000002    5.1229420000000001   -8.3712239999999998
C       6.7641460000000002    5.4112400000000003   -9.3742029999999996
C       5.7773370000000002    6.4756400000000003   -9.1785390000000007
O       5.5538160000000003    7.0737420000000002   -8.1345589999999994
O       5.0877369999999997    6.7553690000000000  -10.3282150000000001
H      11.3381889999999999    3.6765219999999998   -5.4471049999999996
H       9.1846399999999999    4.6659810000000004   -6.2950580000000000
H       8.3980960000000007    3.2885900000000001  -10.3187200000000008
H      10.1263609999999993    1.5229210000000000  -10.0423629999999999
H      11.9076319999999996    1.2655760000000000   -6.9581770000000001
H       7.5258279999999997    5.7352420000000004   -7.4698010000000004
H       6.7554809999999996    4.8890989999999999  -10.3307450000000003
H       4.4804370000000002    7.4839089999999997  -10.0927849999999992
