   91
 
H      12.8143089999999997   -0.6059430000000000   -4.0661920000000000
O      14.3840050000000002    1.2751900000000000   -4.8880400000000002
H      15.2204449999999998   -1.0016900000000000   -4.1477100000000000
H      13.9220769999999998   -0.8937860000000000   -6.2146039999999996
Si     14.0706679999999995   -0.3461470000000000   -4.8331629999999999
O      12.8334600000000005    3.3731200000000001   -4.4968529999999998
O      15.1817499999999992    3.7356080000000000   -5.6526490000000003
Si     13.9044050000000006    2.6900539999999999   -5.5217280000000004
O      11.3959630000000001    5.5888900000000001   -4.9550250000000000
O      11.9989509999999999    4.8641660000000000   -2.4773250000000000
O      13.9243959999999998    5.8127890000000004   -4.1100190000000003
Si     12.5438849999999995    4.9040830000000000   -4.0054840000000000
O       9.9021469999999994    7.6706610000000000   -5.6891910000000001
O      12.4759329999999995    8.0523290000000003   -5.2616759999999996
Si     11.3588400000000007    6.9744900000000003   -5.8239960000000002
O       8.2835000000000001    8.7667880000000000   -3.8760539999999999
O      10.4244079999999997   10.1441680000000005   -4.7587999999999999
Si      9.2477540000000005    9.0782600000000002   -5.1455859999999998
H      11.7864880000000003    5.9777790000000000   -0.1881800000000000
H       9.7591859999999997    5.1173479999999998   -1.2444230000000001
H      10.8210960000000007    7.1409219999999998   -2.1091250000000001
Si     11.0616529999999997    5.8050300000000004   -1.4800810000000000
H       8.1940480000000004    6.2277079999999998   -3.3557619999999999
H       6.1375229999999998    7.5411380000000001   -3.1837080000000002
H       7.9158200000000001    7.8204149999999997   -1.5397639999999999
Si      7.6155369999999998    7.5517219999999998   -2.9787330000000001
H       6.4968009999999996    6.5244549999999997  -10.5894510000000004
H       8.5445869999999999    5.1604939999999999  -10.6561470000000007
H       9.7484859999999998    4.0626860000000002  -13.2726919999999993
Si      7.8739949999999999    6.4023960000000004  -11.1374019999999998
H      11.8832900000000006    4.6019259999999997  -14.3365760000000009
H       7.8019379999999998    6.3525799999999997  -12.6313110000000002
Si     11.0807680000000008    4.7034019999999996  -13.0830140000000004
H       5.2392040000000000    8.3248379999999997   -9.4617179999999994
H      10.8957759999999997    6.1474240000000000  -12.7292900000000007
O       8.7760110000000005    7.7484130000000002  -10.7734290000000001
Si      5.4520900000000001    9.3441849999999995   -8.3975690000000007
O      11.8899190000000008    3.9122819999999998  -11.8694799999999994
H       4.4032850000000003   10.4026160000000001   -8.4799209999999992
H       5.3301040000000004    8.6851929999999999   -7.0529419999999998
Si      9.9884409999999999    8.3480939999999997   -9.8630379999999995
O       6.9293860000000000   10.0459099999999992   -8.5648370000000007
O      10.9839559999999992    9.2109590000000008  -10.8992170000000002
Si     13.6966619999999999   -0.4930870000000000   -9.6869510000000005
Si     12.4897419999999997    4.3264069999999997  -10.4130769999999995
O       9.5103030000000004    9.3963210000000004   -8.7144720000000007
H      14.8844370000000001   -1.1360859999999999  -10.3178909999999995
O      13.0324760000000008    7.4678950000000004   -9.4802820000000008
O      13.9724029999999999    5.0596800000000002  -10.5238569999999996
Si      8.3885439999999996   10.2230209999999992   -7.8582669999999997
O      11.4388880000000004    5.3317839999999999   -9.6642860000000006
O      14.2028289999999995    0.8560580000000000   -8.8824389999999998
O       8.8092520000000007   11.8040299999999991   -7.8065259999999999
O      12.7053770000000004    2.9334639999999998   -9.5868669999999998
Si     11.5515030000000003    6.8324040000000004   -8.9851089999999996
Si     13.8245159999999991    2.3939780000000002   -8.5208359999999992
O      15.1786080000000005    3.3399359999999998   -8.5663429999999998
O       8.2873920000000005    9.6854329999999997   -6.3232359999999996
O      11.6324839999999998    6.5870230000000003   -7.3796710000000001
O      13.2395779999999998    2.4554260000000001   -6.9981809999999998
H      15.5166979999999999    3.8086350000000002   -6.5693999999999999
H      14.6388219999999993    5.3458639999999997   -4.5925750000000001
H      13.2615479999999994    7.6241170000000000   -4.8681429999999999
H      11.3182130000000001    9.7570960000000007   -4.7333350000000003
H      10.7308529999999998    9.1754350000000002  -11.8329100000000000
H      13.9202759999999994    6.0118470000000004  -10.2745390000000008
H       9.2527360000000005   12.1630929999999999   -8.5858539999999994
H      15.1243300000000005    4.0309119999999998   -9.2607529999999993
H      12.6999200000000005   -0.1234300000000000  -10.7406849999999991
H      13.0579859999999996   -1.4435549999999999   -8.7279509999999991
O       9.6368539999999996    2.3559320000000001   -9.5352669999999993
C       9.9134039999999999    1.9260530000000000   -8.2679189999999991
C       9.5945300000000007    2.7946949999999999   -7.1943999999999999
C       9.8740319999999997    2.3492060000000001   -5.8868549999999997
C      10.4243400000000008    1.0970020000000000   -5.6428320000000003
C      10.7100980000000003    0.2472050000000000   -6.7182829999999996
C      10.4571050000000003    0.6602550000000000   -8.0241840000000000
C       8.9915540000000007    4.0858449999999999   -7.4783590000000002
C       8.2957180000000008    4.8474000000000004   -6.6049429999999996
C       7.6980890000000004    6.1160720000000000   -7.0250959999999996
O       7.8776830000000002    6.6990920000000003   -8.0907889999999991
O       6.8610059999999997    6.6096930000000000   -6.0725270000000000
H      10.0534689999999998    1.7498430000000000  -10.1697249999999997
H       9.6798810000000000    3.0237609999999999   -5.0527829999999998
H      10.6446020000000008    0.7870030000000000   -4.6219120000000000
H      11.1380199999999991   -0.7402440000000000   -6.5424740000000003
H      10.6634940000000000   -0.0047200000000000   -8.8658079999999995
H       9.0797279999999994    4.4472690000000004   -8.5046599999999994
H       8.1041559999999997    4.5417310000000004   -5.5765339999999997
H       6.4808519999999996    7.4433819999999997   -6.4272049999999998
H      12.9060170000000003    8.2456239999999994  -10.0526809999999998
