   91
 
H      13.5335300000000007   -0.0150070000000000   -3.8099460000000001
O      14.8904049999999994    1.6461070000000000   -5.2586979999999999
H      15.8800880000000006   -0.4850970000000000   -4.3087960000000001
H      14.1905409999999996   -0.7019200000000000   -6.0582399999999996
Si     14.6048320000000000    0.0684640000000000   -4.8468510000000000
O      13.2402840000000008    3.6016270000000001   -4.5274559999999999
O      15.3552289999999996    4.2010690000000004   -5.9518190000000004
Si     14.1986910000000002    3.0412439999999998   -5.7137750000000000
O      11.5726259999999996    5.6444289999999997   -5.0154439999999996
O      12.1990660000000002    5.0034599999999996   -2.5265320000000000
O      14.0560130000000001    6.1329070000000003   -4.1140429999999997
Si     12.7676520000000000    5.0960890000000001   -4.0429649999999997
O       9.8626240000000003    7.5927819999999997   -5.6768229999999997
O      12.4421949999999999    8.1534700000000004   -5.4937519999999997
Si     11.3483370000000008    6.9928030000000003   -5.9248700000000003
O       8.1123259999999995    8.3427749999999996   -3.7823419999999999
O      10.3142320000000005    9.7533940000000001   -4.1241800000000000
Si      9.1723970000000001    8.8687609999999992   -4.8903030000000003
H      10.9315409999999993    5.2262089999999999   -0.3372710000000000
H       9.7089459999999992    4.3626750000000003   -2.2690150000000000
H      10.2990460000000006    6.7299160000000002   -2.1656599999999999
Si     10.7347549999999998    5.3474069999999996   -1.8089329999999999
H       7.7177800000000003    5.7869999999999999   -3.6777769999999999
H       5.7764819999999997    7.2679239999999998   -3.6704910000000002
H       7.2397020000000003    7.1403710000000000   -1.7225550000000001
Si      7.1881420000000000    7.1054269999999997   -3.2157209999999998
H       6.3965230000000002    7.3643640000000001  -11.0513610000000000
H       8.0428700000000006    5.5875579999999996  -11.4507230000000000
H       9.4150209999999994    3.8537789999999998  -13.3034839999999992
Si      7.7231430000000003    7.0302709999999999  -11.6455620000000000
H      11.5370910000000002    4.2219270000000000  -14.4544479999999993
H       7.6937740000000003    7.3218209999999999  -13.1119039999999991
Si     10.7554479999999995    4.4987459999999997  -13.2133050000000001
H       5.4797120000000001    9.9215400000000002   -9.8597210000000004
H      10.6100999999999992    5.9736779999999996  -13.0258500000000002
O       8.9100990000000007    7.9974660000000002  -11.0117969999999996
Si      5.5041349999999998   10.1228949999999998   -8.3810819999999993
O      11.5839599999999994    3.8326240000000000  -11.9320780000000006
H       4.3784989999999997   11.0035840000000000   -7.9580719999999996
H       5.3317439999999996    8.7804149999999996   -7.7245809999999997
Si      9.7216550000000002    8.4497959999999992   -9.6727489999999996
O       6.9222630000000001   10.8216459999999994   -7.9067629999999998
O      10.6297720000000009    9.8134040000000002  -10.0138510000000007
Si     13.2885829999999991   -0.4599080000000000   -9.6782039999999991
Si     12.2199320000000000    4.3486190000000002  -10.5321370000000005
O       8.6821819999999992    8.9347820000000002   -8.5040840000000006
H      14.3010450000000002   -0.8750540000000000  -10.6930069999999997
O      12.7229209999999995    7.6037319999999999   -9.6536869999999997
O      13.6687209999999997    5.1271849999999999  -10.7744199999999992
Si      8.4075430000000004   10.2371300000000005   -7.5374080000000001
O      11.1955179999999999    5.3879320000000002   -9.8155160000000006
O      13.8750669999999996    0.8550920000000000   -8.8616759999999992
O       9.5631590000000006   11.3731430000000007   -7.7394900000000000
O      12.5020439999999997    3.0226590000000000   -9.6028640000000003
Si     11.3482240000000001    6.8671749999999996   -9.0777789999999996
Si     13.6746490000000005    2.4525839999999999   -8.6388069999999999
O      15.1200259999999993    3.2103750000000000   -9.0223650000000006
O       8.3397129999999997    9.7501110000000004   -5.9834730000000000
O      11.5034690000000008    6.5474319999999997   -7.4775609999999997
O      13.3418700000000001    2.8140999999999998   -7.0934920000000004
H      15.7422620000000002    4.2312919999999998   -6.8406750000000001
H      14.7983860000000007    5.7776120000000004   -4.6384400000000001
H      13.2370009999999994    7.7966129999999998   -5.0522590000000003
H      11.2159879999999994    9.6131229999999999   -4.4628399999999999
H      11.5486860000000000    9.6118240000000004  -10.2566190000000006
H      14.4350290000000001    4.6614370000000003  -10.3926900000000000
H      10.1023730000000000   11.2238170000000004   -8.5389450000000000
H      15.7982180000000003    2.6272609999999998   -9.3928220000000007
H      12.0072899999999994   -0.1124170000000000  -10.3693530000000003
H      13.0558099999999992   -1.5628550000000001   -8.7036619999999996
O       9.6557490000000001    1.7066790000000001   -9.1007990000000003
C      10.0245719999999992    1.5853360000000001   -7.7909360000000003
C       9.7330290000000002    2.6685159999999999   -6.9235389999999999
C      10.1051219999999997    2.5432239999999999   -5.5713619999999997
C      10.7304320000000004    1.3997329999999999   -5.0863110000000002
C      10.9838789999999999    0.3320310000000000   -5.9545139999999996
C      10.6303889999999992    0.4235790000000000   -7.2996540000000003
C       9.0598510000000001    3.8400889999999999   -7.4578740000000003
C       8.3851080000000007    4.7727979999999999   -6.7516970000000001
C       7.7237989999999996    5.8717439999999996   -7.4667859999999999
O       7.8228350000000004    6.1049699999999998   -8.6642510000000001
O       6.9419199999999996    6.6206430000000003   -6.6402479999999997
H      10.0341640000000005    0.9689380000000000   -9.6069160000000000
H       9.9158489999999997    3.3809559999999999   -4.9003530000000000
H      11.0250129999999995    1.3405100000000001   -4.0390720000000000
H      11.4498979999999992   -0.5816880000000000   -5.5852279999999999
H      10.7918920000000007   -0.4228020000000000   -7.9704199999999998
H       9.0701070000000001    3.9591159999999999   -8.5434059999999992
H       8.2639600000000009    4.7392250000000002   -5.6689860000000003
H       6.5467800000000000    7.3310700000000004   -7.1881259999999996
H      13.3553920000000002    6.9914050000000003  -10.0787429999999993
