   93
 
H      12.1852090000000004    1.0990720000000000   -3.3718140000000001
O      14.1567930000000004    1.3326380000000000   -5.0393970000000001
H      14.4387969999999992    1.3256270000000001   -2.4659360000000001
H      13.7873699999999992   -0.7347340000000000   -3.6186440000000002
Si     13.6218409999999999    0.7454590000000000   -3.5736180000000002
O      13.5585470000000008    3.8670890000000000   -4.6442730000000001
O      15.6704460000000001    3.3374579999999998   -6.1077329999999996
Si     14.1552650000000000    2.8111380000000001   -5.7280990000000003
O      12.2050870000000007    6.1598249999999997   -4.8620419999999998
O      13.6185860000000005    5.6373430000000004   -2.6779600000000001
O      14.8304939999999998    6.2298340000000003   -5.0159190000000002
Si     13.5651039999999998    5.4635680000000004   -4.2825839999999999
O      10.3512000000000004    8.8008439999999997   -5.0416949999999998
O      12.9843539999999997    8.0893060000000006   -6.5726290000000001
Si     11.8000810000000005    7.0026840000000004   -6.1897330000000004
O       8.5777380000000001    7.6473690000000003   -3.2717640000000001
O       8.8195779999999999   10.2675260000000002   -3.5468600000000001
Si      8.8075130000000001    8.8351819999999996   -4.3407780000000002
H      14.2140690000000003    4.4864800000000002   -0.4808690000000000
H      12.1276600000000006    3.8331640000000000   -1.5659520000000000
H      12.3225870000000004    6.0321189999999998   -0.5009360000000000
Si     13.0425109999999993    4.9760609999999996   -1.2660250000000000
H      10.5040469999999999    5.9391439999999998   -2.8089919999999999
H       8.2967510000000004    5.5847210000000000   -1.7817360000000000
H       9.7427820000000001    7.3863909999999997   -1.0275810000000001
Si      9.3045530000000003    6.5878079999999999   -2.2184889999999999
H       6.9098819999999996    8.0472979999999996  -13.0864659999999997
H       7.9367390000000002    5.9840119999999999  -12.2975560000000002
H       9.4519029999999997    3.5907149999999999  -12.4344180000000009
Si      8.0185019999999998    7.4776059999999998  -12.2684420000000003
H      10.9674580000000006    3.2815490000000000  -14.3165049999999994
H       9.3399950000000000    7.9004519999999996  -12.8227679999999999
Si     10.7570709999999998    4.0103830000000000  -13.0333819999999996
H       4.4895969999999998    8.2412919999999996   -8.8198480000000004
H      10.7294809999999998    5.4828890000000001  -13.2775879999999997
O       7.8279319999999997    8.0161899999999999  -10.7163070000000005
Si      4.2727060000000003    9.1402579999999993   -7.6463729999999996
O      12.0066919999999993    3.6064620000000001  -12.0238130000000005
H       3.5587110000000002   10.3692829999999994   -8.1103919999999992
H       3.4531070000000001    8.4580230000000007   -6.6073219999999999
Si      8.7325099999999996    8.1408570000000005   -9.3618009999999998
O       5.7175000000000002    9.6338139999999992   -7.0084799999999996
O       9.6804830000000006    9.4917390000000008   -9.3874669999999991
Si     11.8379689999999993   -0.5430590000000000   -7.0802090000000000
Si     12.5296330000000005    4.0171029999999996  -10.5358059999999991
O       7.7022480000000000    8.2345970000000008   -8.1136920000000003
H      12.8871579999999994   -1.4426890000000001   -6.5161059999999997
O       9.6653430000000000    6.7933329999999996   -9.2660649999999993
O      14.1041819999999998    4.4802759999999999  -10.5415630000000000
Si      7.3044940000000000    9.3286259999999999   -6.9481940000000000
O      11.6426280000000002    5.2812370000000000  -10.0369360000000007
O      12.5250170000000001    0.4346280000000000   -8.2324929999999998
O       8.1545089999999991   10.7201500000000003   -7.1520000000000001
O      12.3165560000000003    2.7148080000000001   -9.5630670000000002
Si     11.2420799999999996    6.4696540000000002   -9.0189269999999997
Si     13.1716890000000006    1.9072789999999999   -8.4476589999999998
O      12.0826110000000000    7.8621990000000004   -9.3364290000000008
O      14.7572379999999992    1.7571790000000000   -8.9357489999999995
O       7.6427180000000003    8.7081649999999993   -5.4706460000000003
O      11.5367829999999998    6.0060039999999999   -7.4683719999999996
O      13.2137080000000005    2.7772359999999998   -7.0647669999999998
H      16.0292180000000002    3.0063520000000001   -6.9453339999999999
H      15.5471039999999991    5.6524869999999998   -5.3258219999999996
H      13.8461140000000000    7.8791110000000000   -6.1686699999999997
H       8.8382319999999996   11.0522919999999996   -4.1149889999999996
H      10.6344290000000008    9.2799960000000006   -9.4442660000000007
H      14.7560380000000002    3.7674900000000000  -10.4674069999999997
H       8.8526310000000006   10.6586649999999992   -7.8297999999999996
H      12.7060410000000008    8.1156059999999997   -8.6273330000000001
H      14.9969310000000000    0.9023210000000000   -9.3196569999999994
H      10.7749659999999992   -1.3487080000000000   -7.7439489999999997
H      11.2480370000000001    0.2816810000000000   -5.9844650000000001
N       7.2514849999999997    5.5389350000000004   -5.2848199999999999
C       8.3951340000000005    4.8967970000000003   -4.9176640000000003
O      10.3146730000000009    7.7344629999999999   -6.0785920000000004
N       8.9806080000000001    4.2038609999999998   -5.9307239999999997
C      10.1864950000000007    3.4200990000000000   -5.6596330000000004
C       8.4654179999999997    4.2089990000000004   -7.2149650000000003
N       8.9863040000000005    3.6005650000000000   -8.3184050000000003
C       8.1319750000000006    3.9254810000000000   -9.2881769999999992
N       7.0922720000000004    4.6992289999999999   -8.8662229999999997
C       5.9836429999999998    5.2113849999999999   -9.6639020000000002
C       7.2937260000000004    4.8970929999999999   -7.5133850000000004
C       6.5597750000000001    5.6276729999999997   -6.5258900000000004
O       5.5069439999999998    6.2556700000000003   -6.6412170000000001
H       6.8149290000000002    6.1029710000000001   -4.5563729999999998
H      10.4954830000000001    3.6539410000000001   -4.6378539999999999
H       9.9715170000000004    2.3460299999999998   -5.7520720000000001
H      10.9727519999999998    3.6835019999999998   -6.3733029999999999
H       8.2347110000000008    3.6318830000000002  -10.3299520000000005
H       5.0355460000000001    4.7904859999999996   -9.3074560000000002
H       5.9331209999999999    6.3032000000000004   -9.5845490000000009
H       6.1480180000000004    4.9239990000000002  -10.7078509999999998
