  107
 
H      14.3088390000000008   -1.2814509999999999   -4.7359570000000000
O      14.9937349999999991    1.0265910000000000   -5.6198319999999997
H      14.9200289999999995    0.4317090000000000   -3.1025309999999999
H      16.6343089999999982   -0.5768660000000000   -4.5263619999999998
Si     15.2131229999999995   -0.1287070000000000   -4.4554470000000004
O      13.4186090000000000    3.0399710000000000   -4.8203529999999999
O      15.6276030000000006    3.6141589999999999   -6.0962560000000003
Si     14.4084389999999996    2.4941979999999999   -5.9800639999999996
O      11.6614360000000001    5.0773279999999996   -4.9308110000000003
O      12.6924700000000001    4.3127730000000000   -2.6078510000000001
O      14.2303409999999992    5.5660910000000001   -4.4453870000000002
Si     12.9936369999999997    4.4877339999999997   -4.1812250000000004
O       9.9563889999999997    6.9612970000000001   -5.7863319999999998
O      12.5477179999999997    7.4998969999999998   -5.7340879999999999
Si     11.4309700000000003    6.3072609999999996   -5.9830300000000003
O       8.9125969999999999    7.8479419999999998   -3.5168840000000001
O      10.4691250000000000    9.4852150000000002   -5.0194460000000003
Si      9.3539720000000006    8.2876659999999998   -5.0112449999999997
H      11.6783699999999993    4.0141980000000004   -0.2909280000000000
H      10.3623180000000001    5.2588080000000001   -1.9543910000000000
H      12.3577010000000005    6.2571339999999998   -0.9705970000000000
Si     11.7272859999999994    4.9789500000000002   -1.4236200000000001
H       7.4276890000000000    6.5106000000000002   -1.9125239999999999
H       6.4957289999999999    8.5480070000000001   -2.9138160000000002
H       8.2333180000000006    8.7048050000000003   -1.2124060000000001
Si      7.7224630000000003    7.8989070000000003   -2.3625020000000001
H       7.5291779999999999    7.6804509999999997  -13.3017760000000003
H       9.1159970000000001    6.0803659999999997  -12.3501429999999992
H      10.8108579999999996    4.3966870000000000  -13.9517720000000001
Si      8.7663419999999999    7.5268290000000002  -12.4842530000000007
H      13.1327979999999993    4.7448139999999999  -14.6286930000000002
H       9.8988150000000008    8.2457270000000005  -13.1442180000000004
Si     12.1465479999999992    4.8997330000000003  -13.5203959999999999
H       4.9931440000000000   10.3371980000000008   -9.3328199999999999
H      12.0446130000000000    6.3391929999999999  -13.1312409999999993
O       8.4706370000000000    8.1855209999999996  -10.9946549999999998
Si      4.6109520000000002   10.1698029999999999   -7.8995369999999996
O      12.6855609999999999    3.9951230000000000  -12.2343030000000006
H       4.3323140000000002   11.4988860000000006   -7.2837069999999997
H       3.4174449999999998    9.2858529999999995   -7.7788740000000001
Si      9.0727580000000003    8.1482550000000007   -9.4835600000000007
O       5.8484629999999997    9.4183699999999995   -7.0596589999999999
O      10.1374779999999998    9.3773260000000001   -9.2035040000000006
Si     14.1423600000000000   -1.0736850000000000   -8.4907290000000000
Si     12.8727680000000007    4.1528900000000002  -10.6305340000000008
O       7.8369770000000001    8.3461160000000003   -8.4444520000000001
H      15.3505420000000008   -1.3493670000000000   -7.6580849999999998
O       9.7841290000000001    6.6913840000000002   -9.2371759999999998
O      14.1492799999999992    5.1384980000000002  -10.2450019999999995
Si      7.4798650000000002    9.3828329999999998   -7.2253730000000003
O      11.5420669999999994    4.8439670000000001   -9.9893760000000000
O      14.2950490000000006    0.4301200000000000   -9.1926640000000006
O       7.9991899999999996   10.9005849999999995   -7.5427869999999997
O      13.1156419999999994    2.6524690000000000  -10.0171139999999994
Si     11.2957090000000004    6.1423290000000001   -9.0269440000000003
Si     14.1475120000000008    2.0192260000000002   -8.9303089999999994
O      12.2922720000000005    7.3966209999999997   -9.4451560000000008
O      15.6442610000000002    2.7542870000000002   -9.0969250000000006
O       8.0193820000000002    8.7839100000000006   -5.8106570000000000
O      11.5378200000000000    5.6702680000000001   -7.4851099999999997
O      13.6347290000000001    2.3892159999999998   -7.4273330000000000
H      16.1112779999999987    3.6023420000000002   -6.9381909999999998
H      14.9773040000000002    5.1786979999999998   -4.9420130000000002
H      13.3640840000000001    7.1566609999999997   -5.3148160000000004
H      11.3833169999999999    9.1695340000000005   -5.1415270000000000
H      11.0742110000000000    9.1392240000000005   -9.3262630000000009
H      14.9677279999999993    4.6736079999999998  -10.0012360000000005
H       8.8914890000000000   10.9579699999999995   -7.9227710000000000
H      13.2226009999999992    7.1526969999999999   -9.5834969999999995
H      16.2952359999999992    2.2500909999999998   -9.6062209999999997
H      14.0667270000000002   -2.0580940000000001   -9.6073299999999993
H      12.9141720000000007   -1.1272190000000000   -7.6507059999999996
C       8.0935590000000008    4.0684690000000003   -4.6291810000000000
C       8.0164989999999996    3.0452870000000001   -5.7837480000000001
C       6.3487270000000002    5.8529159999999996   -4.9935510000000001
C       5.8899689999999998    4.0988429999999996   -3.3862060000000000
C       4.6477029999999999    4.6715540000000004   -3.1088089999999999
C      10.0178659999999997    1.9936560000000001   -2.2987829999999998
C      11.4949779999999997    0.4919720000000000   -3.5071080000000001
H       6.7032350000000003    4.0750859999999998   -6.7892989999999998
H       5.2602380000000002    8.0402109999999993   -5.8437340000000004
H       2.9924800000000000    7.2174430000000003   -4.0367459999999999
H      11.1743030000000001    0.9680180000000000   -6.6194290000000002
H      12.1428700000000003   -0.1030560000000000   -1.2399150000000001
C       6.7525519999999997    4.6865500000000004   -4.3180110000000003
C       5.1066170000000000    6.4252110000000000   -4.7199470000000003
C       4.2522380000000002    5.8337250000000003   -3.7666610000000000
C      10.9998819999999995    0.9998400000000000   -4.7088910000000004
C      10.9983550000000001    1.0032779999999999   -2.3053569999999999
C       9.4041770000000007    2.4732490000000000   -6.0479539999999998
O       7.5560850000000004    3.6488149999999999   -6.9864420000000003
O       4.6053449999999998    7.5626840000000000   -5.2925730000000000
O       3.0480330000000002    6.4131520000000002   -3.4868220000000001
O      11.5426529999999996    0.4837970000000000   -5.8615370000000002
O      11.4520309999999998    0.5611440000000000   -1.0873360000000001
C       9.5342110000000009    2.4749070000000000   -3.5203880000000001
C      10.0056530000000006    1.9896980000000000   -4.7531429999999997
O       8.5605360000000008    3.4277970000000000   -3.4224899999999998
H       8.8082410000000007    4.8580350000000001   -4.9122290000000000
H       7.3361460000000003    2.2309559999999999   -5.4652690000000002
H       7.0150579999999998    6.3281140000000002   -5.7148979999999998
H       6.2079240000000002    3.2047840000000001   -2.8521630000000000
H       9.2972350000000006    1.6483049999999999   -6.7740299999999998
H      10.0171270000000003    3.2523049999999998   -6.5342810000000000
H       3.9761220000000002    4.2325379999999999   -2.3705099999999999
H       9.6185589999999994    2.3793380000000002   -1.3631370000000000
H      12.2526960000000003   -0.2911190000000000   -3.5248659999999998
