  115
 
H      13.6189900000000002   -0.9672460000000001   -5.3637530000000000
O      14.7379429999999996    1.2801910000000001   -5.9704220000000001
H      14.2155360000000002    0.5795709999999999   -3.5394770000000002
H      15.9489350000000005   -0.5968670000000000   -4.7717869999999998
Si     14.5986279999999997    0.0385890000000000   -4.8749539999999998
O      13.5269130000000004    3.4083310000000000   -4.8956999999999997
O      15.5526499999999999    3.8029440000000001   -6.4732279999999998
Si     14.2586370000000002    2.8111910000000000   -6.2177069999999999
O      11.7655259999999995    5.3047670000000000   -5.5814550000000001
O      11.9900789999999997    4.5074810000000003   -3.0465570000000000
O      13.9329509999999992    5.9697820000000004   -4.1805899999999996
Si     12.7944770000000005    4.7832090000000003   -4.4204819999999998
O       9.9797469999999997    7.0246199999999996   -6.5855920000000001
O      12.2285339999999998    7.9652710000000004   -5.5924569999999996
Si     11.5565709999999999    6.6922699999999997   -6.4106529999999999
O       8.0917349999999999    7.2815729999999999   -4.7683790000000004
O       9.6729249999999993    9.4095800000000001   -5.3823359999999996
Si      8.8913879999999992    8.0613209999999995   -5.9413999999999998
H      10.7393300000000007    4.9491110000000003   -0.8658860000000000
H       9.4573870000000007    4.0172629999999998   -2.7407040000000000
H      10.2010600000000000    6.3328629999999997   -2.7973580000000000
Si     10.5460849999999997    4.9483629999999996   -2.3411420000000001
H       7.1003699999999998    5.9716560000000003   -2.8386300000000002
H       5.6368340000000003    7.5196249999999996   -4.0283870000000004
H       7.3749789999999997    8.3797339999999991   -2.5443810000000000
Si      7.0236060000000000    7.3003060000000000   -3.5157750000000001
H       7.1884569999999997    7.7717700000000001  -12.0307729999999999
H       8.8435299999999994    6.7777219999999998  -13.5203939999999996
H      10.3183550000000004    4.4394359999999997  -14.3138150000000000
Si      8.4506680000000003    8.0191459999999992  -12.7946939999999998
H      12.7033059999999995    4.4949399999999997  -14.8437629999999992
H       8.2067549999999994    9.1192410000000006  -13.7753569999999996
Si     11.6604899999999994    4.8902619999999999  -13.8512880000000003
H       5.3336910000000000    9.0730219999999999  -10.7238360000000004
H      11.6759190000000004    6.3719859999999997  -13.6616610000000005
O       9.6879840000000002    8.4401200000000003  -11.7839620000000007
Si      4.9331269999999998    9.6265959999999993   -9.3941680000000005
O      11.9915540000000007    4.1258030000000003  -12.4098480000000002
H       4.0722620000000003   10.8280410000000007   -9.6053519999999999
H       4.1759409999999999    8.5969289999999994   -8.6248459999999998
Si      9.9559519999999999    9.1414299999999997  -10.3332259999999998
O       6.2608129999999997   10.1197250000000007   -8.5441450000000003
O      10.6205529999999992   10.6273879999999998  -10.5019829999999992
Si     11.5489820000000005   -0.3099470000000000   -8.5705930000000006
Si     12.5484510000000000    4.4826309999999996  -10.9303460000000001
O       8.5376139999999996    9.2877290000000006   -9.5607209999999991
H      12.0184259999999998   -1.0958070000000000   -7.3963599999999996
O      10.9665839999999992    8.1785250000000005   -9.4753120000000006
O      14.1408410000000000    4.9284109999999997  -10.9219740000000005
Si      7.8003499999999999    9.7766540000000006   -8.1751439999999995
O      11.6905160000000006    5.7678289999999999  -10.3689560000000007
O      12.7745739999999994    0.7062010000000000   -9.0721439999999998
O       8.5180240000000005   11.1059929999999998   -7.5521680000000000
O      12.3158949999999994    3.1805349999999999   -9.9687739999999998
Si     12.1219009999999994    7.0547279999999999   -9.4051069999999992
Si     13.2671759999999992    2.2455500000000002   -9.0184210000000000
O      13.5299379999999996    7.6956480000000003   -9.9366360000000000
O      14.8248210000000000    2.3434910000000002   -9.6079969999999992
O       7.8393329999999999    8.5473459999999992   -7.0827299999999997
O      12.2419469999999997    6.4947889999999999   -7.8798700000000004
O      13.2569990000000004    2.8743069999999999   -7.5211050000000004
H      16.0518029999999996    3.6560530000000000   -7.2888630000000001
H      14.8190229999999996    5.7516080000000001   -4.5068060000000001
H      12.9952860000000001    7.7149320000000001   -5.0436660000000000
H      10.6200639999999993    9.2576370000000008   -5.2000070000000003
H      11.5719849999999997   10.6642740000000007  -10.6684950000000001
H      14.7509940000000004    4.2056680000000002  -10.6852309999999999
H       9.0448550000000001   10.9214190000000002   -6.7530700000000001
H      14.1744970000000006    7.0369950000000001  -10.2477040000000006
H      15.1884239999999995    1.5196410000000000   -9.9616349999999994
H      11.2679489999999998   -1.2273510000000001   -9.7142669999999995
H      10.3288989999999998    0.4778130000000000   -8.2367310000000007
C      11.6507690000000004   -2.1783009999999998   -2.1159070000000000
C      11.0608559999999994    0.2165430000000000   -2.7576670000000001
C      10.8950949999999995    0.5991290000000000   -1.2815270000000001
C      11.7267759999999992   -0.3243650000000000   -0.3666400000000000
C       9.2467710000000007    4.3291339999999998   -8.4300909999999991
C       7.5922679999999998    4.3759249999999996   -6.6587500000000004
C       6.8268810000000002    5.2669629999999996   -7.3993349999999998
H      13.5056870000000000   -2.8304550000000002   -2.2932130000000002
H      12.2247629999999994    1.9638860000000000   -0.9870580000000000
H      13.4644209999999998   -0.5169220000000000   -1.2436190000000000
H       9.8117610000000006    5.6361010000000000  -10.5182900000000004
H       7.0213169999999998    6.8024370000000003  -10.1819059999999997
C       8.8165060000000004    3.8877410000000001   -7.1612450000000001
C       8.4887250000000005    5.2228820000000002   -9.1699529999999996
C       7.2643599999999999    5.6966070000000002   -8.6576699999999995
O      10.0618719999999993   -4.0216349999999998   -2.2948189999999999
O      11.5185700000000004    1.1003149999999999   -5.2730399999999999
C      10.8081410000000009   -1.2714600000000000   -3.0258850000000002
C      11.4337830000000000   -1.8048690000000001   -0.6274270000000000
O      13.0390060000000005   -1.9971429999999999   -2.4755280000000002
O      11.2504310000000007    1.9551480000000001   -1.0501380000000000
O      13.1208050000000007   -0.0022440000000000   -0.4860430000000000
O      12.2785200000000003   -4.4782339999999996   -2.4062399999999999
O       8.8380279999999996    5.6967100000000004  -10.4105369999999997
O       6.5195299999999996    6.5781770000000002   -9.3725450000000006
C      11.2081689999999998   -3.6355130000000000   -2.2971460000000001
C      10.4679149999999996    1.4350650000000000   -4.7351270000000003
O      10.0951419999999992    0.9988230000000000   -3.4912839999999998
H      11.9172530000000005   -5.3835300000000004   -2.4728840000000001
C       9.4492150000000006    2.3260200000000002   -5.2825119999999997
C       9.6726159999999997    2.9587870000000001   -6.4582280000000001
H      12.0630640000000007    0.5016330000000000   -3.1067589999999998
H      11.0386240000000004   -1.4961530000000001   -4.0763720000000001
H       9.7464720000000007   -1.4995810000000001   -2.8551289999999998
H       9.8285870000000006    0.5079330000000000   -1.0137740000000000
H      11.4614949999999993   -0.0819610000000000    0.6742400000000000
H      10.3895180000000007   -2.0251290000000002   -0.3584390000000000
H      12.0782760000000007   -2.4272089999999999    0.0121610000000000
H       8.5438050000000008    2.4616980000000002   -4.6919000000000004
H      10.6329379999999993    2.7502550000000001   -6.9373589999999998
H      10.1908399999999997    3.9574549999999999   -8.8283839999999998
H       7.2463709999999999    4.0725889999999998   -5.6707060000000000
H       5.8915870000000004    5.6699760000000001   -7.0111220000000003
