  107
 
H      12.0966559999999994   -0.5993309999999999   -5.4858890000000002
O      14.2695709999999991    0.8103870000000000   -5.5394230000000002
H      13.3377429999999997   -0.2954290000000000   -3.4013070000000001
H      14.2599400000000003   -1.6986500000000000   -5.1807600000000003
Si     13.4552029999999991   -0.4811980000000000   -4.8777330000000001
O      12.7537199999999995    2.9162729999999999   -4.9938659999999997
O      15.3322800000000008    3.2911860000000002   -5.5003650000000004
Si     14.0052310000000002    2.3742179999999999   -5.8842960000000000
O      11.4735340000000008    5.2512150000000002   -5.3728939999999996
O      11.5076350000000005    4.1170479999999996   -2.9800570000000000
O      13.7644110000000008    5.2027210000000004   -4.0157179999999997
Si     12.3633590000000009    4.3656870000000003   -4.3281280000000004
O      10.4794260000000001    7.5800570000000000   -6.2658509999999996
O      13.0736319999999999    7.3897620000000002   -5.7316209999999996
Si     11.7553029999999996    6.5691340000000000   -6.2907320000000002
O       9.6920870000000008    8.6054359999999992   -3.9550139999999998
O      11.4222389999999994    9.9985619999999997   -5.5132890000000003
Si     10.1418470000000003    8.9773669999999992   -5.4725200000000003
H       9.4017210000000002    3.8843060000000000   -1.5593280000000000
H       9.5732949999999999    5.8296720000000004   -3.0510869999999999
H      10.9487020000000008    5.7013650000000000   -1.0378430000000001
Si     10.3081739999999993    4.9155170000000004   -2.1367560000000001
H       8.4146870000000007    8.0184619999999995   -1.8269740000000001
H       7.8111439999999996   10.0935919999999992   -2.9740350000000002
H       9.9243199999999998    9.9272229999999997   -1.7675890000000001
Si      8.9337900000000001    9.1815429999999996   -2.6026170000000000
H       7.3698410000000001    8.4601760000000006  -13.4550549999999998
H       8.0109250000000003    6.1916630000000001  -12.8596140000000005
H      11.9600860000000004    3.3904190000000001  -14.2662180000000003
Si      8.3698189999999997    7.6385050000000003  -12.7164789999999996
H      13.2675099999999997    5.4002689999999998  -14.7085620000000006
H       9.7372209999999999    7.8522040000000004  -13.2793030000000005
Si     12.4511000000000003    4.6748079999999996  -13.6903199999999998
H       5.0927879999999996    8.6210419999999992   -9.0223379999999995
H      11.3029879999999991    5.5259400000000003  -13.2629439999999992
O       8.3123539999999991    8.0569140000000008  -11.1203909999999997
Si      4.9593069999999999    8.6941199999999998   -7.5401740000000004
O      13.4419690000000003    4.3375060000000003  -12.3992550000000001
H       3.9179789999999999    9.6881149999999998   -7.1521119999999998
H       4.6128190000000000    7.3581729999999999   -6.9732110000000000
Si      9.2846899999999994    8.2575129999999994   -9.8298170000000002
O       6.4120109999999997    9.1609529999999992   -6.8451959999999996
O      10.2608049999999995    9.5659670000000006  -10.0106629999999992
Si     14.7709949999999992   -0.6277090000000000   -8.9467099999999995
Si     13.5115099999999995    4.5576369999999997  -10.7967870000000001
O       8.3175500000000007    8.4770350000000008   -8.5394740000000002
H      15.9793800000000008   -1.2688820000000001   -8.3489470000000008
O      10.1660430000000002    6.8888480000000003   -9.6213859999999993
O      14.7003789999999999    5.6444349999999996  -10.4011549999999993
Si      7.8572350000000002    9.6287289999999999   -7.4737260000000001
O      12.0886309999999995    5.1815110000000004  -10.2922089999999997
O      15.1404589999999999    0.9809210000000000   -9.1681450000000009
O       7.6392189999999998   11.0854990000000004   -8.1840340000000005
O      13.8398330000000005    3.1234630000000001  -10.0872670000000006
Si     11.7208089999999991    6.4764559999999998   -9.3731480000000005
Si     14.6260610000000000    2.4778470000000001   -8.8255060000000007
O      12.6034530000000000    7.8095879999999998   -9.8024199999999997
O      15.9720449999999996    3.4212810000000000   -8.4887219999999992
O       8.9020270000000004    9.7172300000000007   -6.2315639999999997
O      11.9786049999999999    6.0582609999999999   -7.8229280000000001
O      13.6963559999999998    2.5430969999999999   -7.4876670000000001
H      15.8722539999999999    3.5346839999999999   -6.2738969999999998
H      14.5631830000000004    4.7240560000000000   -4.3173329999999996
H      13.5745699999999996    6.8681749999999999   -5.0692329999999997
H      12.2795280000000009    9.5487070000000003   -5.4218029999999997
H      11.2139249999999997    9.3604350000000007  -10.0260680000000004
H      15.3890449999999994    5.2929060000000003   -9.8133499999999998
H       8.4058270000000004   11.4660139999999995   -8.6369609999999994
H      13.5538930000000004    7.6447260000000004   -9.9220240000000004
H      16.8049329999999983    3.0674239999999999   -8.8337740000000000
H      14.4968540000000008   -1.2389600000000001  -10.2795210000000008
H      13.6025659999999995   -0.7975780000000000   -8.0408150000000003
C       8.4002119999999998    4.4364730000000003   -7.7030810000000001
C       7.2319680000000002    4.2430839999999996   -8.7041579999999996
C       7.5577430000000003    6.0055079999999998   -5.9831240000000001
C       7.7256349999999996    3.6764220000000001   -5.3553759999999997
C       7.1816449999999996    3.9837090000000002   -4.1043529999999997
C      10.6642189999999992    1.9139569999999999   -9.0156340000000004
C      10.6248430000000003    2.0014780000000001  -11.4464459999999999
H       5.9768640000000000    5.3589779999999996   -7.7203400000000002
H       6.6292299999999997    8.1779050000000009   -5.1369920000000002
H       6.0889490000000004    6.5446720000000003   -2.5667540000000000
H       8.4827309999999994    4.1296280000000003  -12.4088080000000005
H      12.3871739999999999    0.3683890000000000  -11.1807529999999993
C       7.9185889999999999    4.6870870000000000   -6.3021010000000004
C       6.9878910000000003    6.3094219999999996   -4.7521409999999999
C       6.8061239999999996    5.2915900000000002   -3.7966319999999998
C       9.5893440000000005    2.9358110000000002  -11.3823559999999997
C      11.1288470000000004    1.4778340000000001  -10.2532599999999992
C       7.8161389999999997    4.2320489999999999  -10.1090389999999992
O       6.2655500000000002    5.2840809999999996   -8.6476609999999994
O       6.5929370000000000    7.5681120000000002   -4.3697070000000000
O       6.2825009999999999    5.5889899999999999   -2.5690550000000001
O       9.1073070000000005    3.4034430000000002  -12.5790140000000008
O      12.1217910000000000    0.5221220000000000  -10.2598450000000003
C       9.6363190000000003    2.8613350000000000   -8.9840699999999991
C       9.0439190000000007    3.3583889999999998  -10.1592040000000008
O       9.2260000000000009    3.2584080000000002   -7.7366450000000002
H       8.9967670000000002    5.3015239999999997   -8.0391549999999992
H       6.7684910000000000    3.2643469999999999   -8.4712879999999995
H       7.7421610000000003    6.7952219999999999   -6.7094649999999998
H       8.0129099999999998    2.6524130000000001   -5.5907270000000002
H       7.0490370000000002    3.8692030000000002  -10.8143729999999998
H       8.0346550000000008    5.2785909999999996  -10.3797110000000004
H       7.0397400000000001    3.2110189999999998   -3.3482010000000000
H      11.0950919999999993    1.5436609999999999   -8.0883459999999996
H      11.0023610000000005    1.6825330000000001  -12.4188310000000008
