   92
 
H      12.8951940000000000   -0.5123970000000000   -5.0228919999999997
O      14.8911200000000008    1.0334810000000001   -5.6066950000000002
H      14.6195979999999999   -0.1436450000000000   -3.3306350000000000
H      15.1262919999999994   -1.4732460000000001   -5.3161180000000003
Si     14.3550030000000000   -0.3109070000000000   -4.7905280000000001
O      13.3500230000000002    3.0674100000000002   -4.8590540000000004
O      15.7785539999999997    3.5806190000000000   -5.7553979999999996
Si     14.4758630000000004    2.5673509999999999   -5.9279000000000002
O      11.7949640000000002    5.2388800000000000   -5.1518179999999996
O      12.3254490000000008    4.2840439999999997   -2.7442050000000000
O      14.2662420000000001    5.5063649999999997   -4.1849449999999999
Si     12.9345549999999996    4.5216050000000001   -4.2269629999999996
O      10.3283570000000005    7.3138639999999997   -6.0371439999999996
O      12.9426850000000009    7.6002489999999998   -5.7171300000000000
Si     11.7503189999999993    6.5369580000000003   -6.1447380000000003
O       9.2864109999999993    8.0715850000000007   -3.7191450000000001
O      10.9426179999999995    9.7391869999999994   -5.0467899999999997
Si      9.7757349999999992    8.5990490000000008   -5.1742540000000004
H      11.2376120000000004    4.3520669999999999   -0.4541060000000000
H       9.7665810000000004    4.1729430000000001   -2.3928159999999998
H      10.9005360000000007    6.2827970000000004   -1.9194510000000000
Si     11.0135860000000001    4.7961470000000004   -1.8589800000000001
H       7.7979919999999998    6.6605340000000002   -2.1938610000000001
H       6.8817909999999998    8.7676569999999998   -3.0428259999999998
H       8.6413930000000008    8.7768599999999992   -1.3529590000000000
Si      8.1114339999999991    8.0732929999999996   -2.5603069999999999
H       7.6895410000000002    8.1488300000000002  -13.3777360000000005
H       9.0320499999999999    6.3274130000000000  -12.4531150000000004
H      10.7238319999999998    3.9728919999999999  -13.1072860000000002
Si      8.8988739999999993    7.8115680000000003  -12.5730570000000004
H      12.5066159999999993    4.0355600000000003  -14.7827409999999997
H      10.1183879999999995    8.3604129999999994  -13.2403049999999993
Si     12.0049679999999999    4.6243650000000001  -13.5080639999999992
H       4.4700639999999998    9.4881220000000006   -8.8823460000000001
H      11.7896280000000004    6.0925620000000000  -13.6811810000000005
O       8.7095690000000001    8.4923959999999994  -11.0778540000000003
Si      4.5417769999999997    9.3642149999999997   -7.3964860000000003
O      13.1783830000000002    4.3570599999999997  -12.3601980000000005
H       4.1399489999999997   10.6480429999999995   -6.7539509999999998
H       3.6612410000000000    8.2547779999999999   -6.9303489999999996
Si      9.3754670000000004    8.4696770000000008   -9.5913409999999999
O       6.0893329999999999    8.9455249999999999   -6.9262920000000001
O      10.3876360000000005    9.7368939999999995   -9.3357039999999998
Si     14.3126820000000006   -0.6551330000000000   -9.2742959999999997
Si     13.3332689999999996    4.5749389999999996  -10.7594510000000003
O       8.1515679999999993    8.5935810000000004   -8.5278530000000003
H      15.5294969999999992   -1.5026210000000000   -9.4603599999999997
O      10.1506790000000002    7.0356120000000004   -9.3973220000000008
O      14.5880790000000005    5.5924329999999998  -10.4009509999999992
Si      7.6044729999999996    9.4844500000000007   -7.2754830000000004
O      11.9617380000000004    5.2705609999999998  -10.2030560000000001
O      14.8785919999999994    0.9095540000000000   -9.2838580000000004
O       7.4665720000000002   11.0705060000000000   -7.6575509999999998
O      13.5941250000000000    3.1202429999999999  -10.0635220000000007
Si     11.6796369999999996    6.5252059999999998   -9.1948240000000006
Si     14.5482279999999999    2.4514960000000001   -8.9304559999999995
O      12.6366150000000008    7.8233509999999997   -9.5643930000000008
O      16.0049129999999984    3.2863690000000001   -8.9092819999999993
O       8.5013310000000004    9.2520950000000006   -5.9472500000000004
O      11.9390350000000005    6.0005129999999998   -7.6739369999999996
O      13.9051919999999996    2.6907670000000001   -7.4545880000000002
H      16.2723480000000009    3.7299669999999998   -6.5792960000000003
H      15.0589519999999997    5.0863860000000001   -4.5750869999999999
H      13.6483530000000002    7.1806120000000000   -5.1849689999999997
H      11.8449620000000007    9.3819210000000002   -5.1297530000000000
H      11.3324970000000000    9.5371050000000004   -9.4598270000000007
H      15.3487709999999993    5.1544390000000000   -9.9814039999999995
H       8.2733799999999995   11.5203229999999994   -7.9470989999999997
H      13.5716059999999992    7.6096089999999998   -9.7201789999999999
H      16.7297249999999984    2.8352420000000000   -9.3662240000000008
H      13.4017320000000009   -0.8818460000000000  -10.4353259999999999
H      13.6576860000000000   -0.9999250000000000   -7.9850849999999998
O       6.5479909999999997    6.5978930000000000   -5.2067209999999999
C       7.3275210000000000    5.6969570000000003   -5.8625870000000004
C       8.0832850000000001    4.8033869999999999   -5.0895950000000001
C       8.9259419999999992    3.8988440000000000   -5.7175909999999996
C       9.0389529999999993    3.8426770000000001   -7.1244280000000000
C       8.2507800000000007    4.7379340000000001   -7.8802339999999997
C       7.4043630000000000    5.6452140000000002   -7.2658779999999998
C       9.9380600000000001    2.8792990000000001   -7.7242720000000000
C      10.0902539999999998    2.6053590000000000   -9.0434319999999992
C      11.0311780000000006    1.5851670000000000   -9.4870839999999994
O      11.7704310000000003    0.9052480000000001   -8.7795249999999996
O      11.0234690000000004    1.4453870000000000  -10.8495469999999994
H       6.2460860000000000    7.2944800000000001   -5.8276610000000000
H       8.0166690000000003    4.8553579999999998   -4.0036690000000004
H       9.5305940000000007    3.2207230000000000   -5.1127710000000004
H       8.3137319999999999    4.7360499999999996   -8.9684790000000003
H       6.8126860000000002    6.3352019999999998   -7.8671340000000001
H      10.5577520000000007    2.3004319999999998   -7.0314740000000002
H       9.5264439999999997    3.1177579999999998   -9.8226569999999995
H      11.6947600000000005    0.7639680000000000  -11.0468379999999993
