   72
 
H      12.9812169999999991   -0.4910440000000000   -5.1275389999999996
O      14.9468130000000006    1.1893199999999999   -5.2964050000000000
H      14.9892310000000002   -0.8579890000000000   -3.7731159999999999
H      15.0569649999999999   -1.2097169999999999   -6.1873399999999998
Si     14.4701690000000003   -0.3849210000000000   -5.0879230000000000
O      13.3104350000000000    3.2267359999999998   -4.7669879999999996
O      15.6600180000000009    3.7272989999999999   -5.8333800000000000
Si     14.4138690000000000    2.6385320000000001   -5.8030460000000001
O      11.5667880000000007    5.2723360000000001   -4.5067250000000003
O      12.8864870000000007    4.3569540000000000   -2.4110490000000002
O      14.1721649999999997    5.7449479999999999   -4.3638649999999997
Si     12.9919600000000006    4.6433140000000002   -4.0044259999999996
O       9.7097820000000006    6.8973409999999999   -5.5268709999999999
O      12.1837689999999998    7.7715920000000001   -5.3594280000000003
Si     11.2577890000000007    6.4264109999999999   -5.6260139999999996
O       8.4046500000000002    8.4677729999999993   -3.8299479999999999
O       9.9159199999999998    9.5728170000000006   -5.8158789999999998
Si      8.9204430000000006    8.3373840000000001   -5.3722479999999999
H      12.6945689999999995    4.4385789999999998    0.1168740000000000
H      10.6160309999999996    4.4120330000000001   -1.1712870000000000
H      11.9953260000000004    6.4235439999999997   -1.1245160000000001
Si     12.0145560000000007    4.9293820000000004   -1.1159010000000000
H       8.8785380000000007    6.6601439999999998   -2.0400640000000001
H       8.2718109999999996    8.9179200000000005   -1.3273940000000000
H      10.4780449999999998    8.4745209999999993   -2.2794409999999998
Si      9.0253449999999997    8.1175949999999997   -2.3346149999999999
H       7.5897660000000000    8.9117920000000002  -12.9986320000000006
H       9.1077659999999998    7.1697540000000002  -13.7755899999999993
H      10.3251510000000000    4.7256739999999997  -12.6781140000000008
Si      8.9264910000000004    8.2783230000000003  -12.7901790000000002
H      12.1281079999999992    5.0079650000000004  -14.3155959999999993
H      10.0020609999999994    9.2964160000000007  -12.9882050000000007
Si     11.7205619999999993    5.2017530000000001  -12.8953480000000003
H       4.7927330000000001    9.1417009999999994  -10.3211469999999998
H      11.8251050000000006    6.6466430000000001  -12.5263570000000009
O       9.0193379999999994    7.6176979999999999  -11.2802740000000004
Si      4.3100379999999996    9.1835380000000004   -8.9064289999999993
O      12.7798140000000000    4.3088949999999997  -11.9616249999999997
H       3.6198830000000002   10.4832579999999993   -8.6532309999999999
H       3.3553590000000000    8.0605689999999992   -8.6703320000000001
Si      9.2676370000000006    7.9961000000000002   -9.7141409999999997
O       5.5717270000000001    9.0202770000000001   -7.8527490000000002
O      10.2277400000000007    9.3192670000000000   -9.5351049999999997
Si     13.5090570000000003   -0.8542689999999999   -9.1848469999999995
Si     13.1319189999999999    4.3296450000000002  -10.3751259999999998
O       7.8325230000000001    8.2876759999999994   -9.0155919999999998
H      14.4220679999999994   -2.0316600000000000   -9.1732270000000007
O       9.9602959999999996    6.6851250000000002   -9.0024599999999992
O      14.3626609999999992    5.3849140000000002  -10.0207660000000001
Si      7.1859159999999997    9.1054569999999995   -7.7444769999999998
O      11.8472059999999999    4.8625160000000003   -9.5319520000000004
O      14.4619540000000004    0.4973570000000000   -9.0044509999999995
O       7.6178749999999997   10.6853189999999998   -7.7646240000000004
O      13.5453539999999997    2.8079070000000002   -9.9401200000000003
Si     11.4657630000000008    6.1936669999999996   -8.6581139999999994
Si     14.4085660000000004    2.0986870000000000   -8.7531199999999991
O      12.4817029999999995    7.4452030000000002   -9.0329709999999999
O      15.9669270000000001    2.6807759999999998   -8.7432429999999997
O       7.6240870000000003    8.3666239999999998   -6.3465610000000003
O      11.5718720000000008    5.7686109999999999   -7.0891770000000003
O      13.7618460000000002    2.4900280000000001   -7.3058699999999996
H      16.2186209999999988    3.6722399999999999   -6.6264320000000003
H      14.9422239999999995    5.3572590000000000   -4.8227050000000000
H      13.0977969999999999    7.5691530000000000   -5.0918310000000000
H      10.8609510000000000    9.4071180000000005   -5.6491259999999999
H      11.1767230000000009    9.1136940000000006   -9.4677319999999998
H      15.2697540000000007    5.0713229999999996  -10.1419779999999999
H       8.5615869999999994   10.8548960000000001   -7.6149870000000002
H      13.3870240000000003    7.1768159999999996   -9.2674369999999993
H      16.6300619999999988    2.1013229999999998   -9.1437340000000003
H      12.7752599999999994   -0.7767660000000000  -10.4816640000000003
H      12.5409120000000005   -0.9383450000000000   -8.0521279999999997
