   94
 
H      12.9994789999999991    0.7097760000000000   -5.0880120000000000
O      15.2708729999999999    1.9548340000000000   -4.9822119999999996
H      14.2960820000000002    0.6280150000000000   -3.0229550000000001
H      15.0714220000000001   -0.5894200000000001   -5.0078449999999997
Si     14.3745030000000007    0.6282710000000000   -4.5109110000000001
O      14.2843289999999996    4.4771780000000003   -4.8710860000000000
O      16.6407239999999987    4.0958240000000004   -5.8407710000000002
Si     15.1551279999999995    3.3883230000000002   -5.7270390000000004
O      11.7477380000000000    5.2924499999999997   -5.1452359999999997
O      12.3467219999999998    3.2540730000000000   -3.5115200000000000
O      13.0435560000000006    5.8324959999999999   -2.9516610000000001
Si     12.8515200000000007    4.6663649999999999   -4.1136280000000003
O      10.0054060000000007    7.1907579999999998   -5.7796019999999997
O      12.4983869999999992    7.8336389999999998   -4.8410780000000004
Si     11.5600249999999996    6.7937760000000003   -5.7636510000000003
O       8.3474570000000003    7.8500690000000004   -3.8414619999999999
O       9.6013240000000000    9.7838100000000008   -5.2498899999999997
Si      8.8830170000000006    8.3111029999999992   -5.3035170000000003
H      11.3069369999999996    1.1907960000000000   -2.4700780000000000
H       9.9159269999999999    2.5278610000000001   -3.9938400000000001
H      10.4556400000000007    3.3821949999999998   -1.7639220000000000
Si     10.9415200000000006    2.5629930000000001   -2.9136060000000001
H       8.3925289999999997    5.3352219999999999   -3.2132540000000001
H       8.0139289999999992    7.0097959999999997   -1.4593730000000000
H      10.2250080000000008    6.7340939999999998   -2.4637669999999998
Si      8.7476529999999997    6.6980219999999999   -2.7150539999999999
H       6.9432330000000002    8.5940639999999995  -12.0937920000000005
H       8.0339630000000000    6.4929300000000003  -12.6838370000000005
H       9.4106450000000006    4.4513970000000000  -11.2336050000000007
Si      8.2244430000000008    7.9680130000000000  -12.5339460000000003
H      10.2227720000000009    3.6087250000000002  -13.3968779999999992
H       8.6863650000000003    8.5552770000000002  -13.8216009999999994
Si     10.5492209999999993    4.4217120000000003  -12.1946999999999992
H       5.3879200000000003   10.3672070000000005  -10.3394230000000000
H      10.9159659999999992    5.8166510000000002  -12.5867570000000004
O       9.4138140000000003    8.2540790000000008  -11.4054380000000002
Si      4.8162719999999997    9.3972650000000009   -9.3564000000000007
O      11.8716179999999998    3.7025540000000001  -11.4613990000000001
H       3.5270260000000002    9.9050030000000007   -8.8131260000000005
H       4.6233129999999996    8.0742860000000007  -10.0193349999999999
Si      9.6169229999999999    8.3908220000000000   -9.8042780000000000
O       5.8597690000000000    9.2167949999999994   -8.0703390000000006
O      10.2822040000000001    9.8294949999999996   -9.3665900000000004
Si     12.6191309999999994   -0.1946900000000000   -8.1783940000000008
Si     12.8971429999999998    4.1325620000000001  -10.2840129999999998
O       8.1811019999999992    8.3371899999999997   -9.0364579999999997
H      12.8026630000000008   -1.3679800000000000   -7.2806980000000001
O      10.5181149999999999    7.1226310000000002   -9.2888559999999991
O      14.1017880000000009    5.1271149999999999  -10.8656410000000001
Si      7.4459669999999996    9.1234909999999996   -7.7925870000000002
O      12.1617359999999994    5.0321610000000003   -9.1321429999999992
O      14.0084800000000005    0.7243550000000000   -8.0505999999999993
O       8.1457280000000001   10.6156729999999992   -7.6116460000000004
O      13.5168470000000003    2.7818760000000000   -9.6339369999999995
Si     11.9948289999999993    6.6328790000000000   -8.8473649999999999
Si     14.5094740000000009    2.2125819999999998   -8.4652390000000004
O      13.1627849999999995    7.4663539999999999   -9.6460290000000004
O      16.0792870000000008    2.1825280000000000   -8.9451610000000006
O       7.6648519999999998    8.3006250000000001   -6.3903639999999999
O      12.2121329999999997    6.9153310000000001   -7.2483880000000003
O      14.4534490000000009    3.2470370000000002   -7.1971610000000004
H      17.3754899999999992    3.4875900000000000   -6.0057790000000004
H      13.5037730000000007    5.6014780000000002   -2.1329039999999999
H      12.6124050000000008    7.5195679999999996   -3.9193389999999999
H       9.1785589999999999   10.4152439999999995   -5.8676820000000003
H      11.1349649999999993   10.1779650000000004   -9.6970109999999998
H      14.5348710000000008    4.8687690000000003  -11.6917000000000009
H       8.8666889999999992   10.7674579999999995   -8.2543980000000001
H      13.6634469999999997    6.8941359999999996  -10.2648410000000005
H      16.3624299999999998    1.4349609999999999   -9.4897729999999996
H      12.4488099999999999   -0.6308830000000000   -9.5941890000000001
H      11.4416300000000000    0.6147340000000000   -7.7436199999999999
N      14.9275909999999996    9.9927810000000008   -9.8878640000000004
C      13.7924919999999993   10.3422549999999998   -9.1649700000000003
O      12.8768119999999993   10.9874779999999994   -9.6592760000000002
N      13.7769949999999994    9.9386390000000002   -7.8173120000000003
C      12.6863639999999993   10.4092699999999994   -6.9520780000000002
C      14.6957520000000006    9.0107060000000008   -7.4303109999999997
N      14.7233920000000005    8.2787229999999994   -6.2708320000000004
C      15.7200340000000001    7.3686290000000003   -6.3747740000000004
N      16.3479479999999988    7.5257069999999997   -7.5420249999999998
C      17.4643030000000010    6.7072390000000004   -8.0294799999999995
C      15.7349960000000006    8.5657530000000008   -8.2267569999999992
C      15.9169590000000003    9.0358839999999994   -9.5817829999999997
O      16.7551150000000000    8.6738250000000008  -10.3929760000000009
H      14.9146669999999997   10.3120670000000008  -10.8563159999999996
H      12.4046690000000002   11.4118209999999998   -7.2867670000000002
H      11.8073589999999999    9.7576350000000005   -7.0141879999999999
H      13.0389400000000002   10.4535689999999999   -5.9168089999999998
H      15.9572990000000008    6.6092009999999997   -5.6367229999999999
H      17.1980119999999985    6.2941419999999999   -9.0084040000000005
H      18.3595900000000007    7.3299820000000002   -8.1346150000000002
H      17.6254239999999989    5.8986599999999996   -7.3107590000000000
H      13.9267280000000007    8.1977080000000004   -5.5785770000000001
