   94
 
H      14.0043740000000003    0.1302460000000000   -3.8900960000000002
O      15.2001360000000005    1.2955440000000000   -5.8622360000000002
H      16.4495420000000010    0.2542700000000000   -3.8774890000000002
H      15.3110389999999992   -1.2153229999999999   -5.4684980000000003
Si     15.2376839999999998    0.0753400000000000   -4.7280139999999999
O      13.2402289999999994    2.9721679999999999   -5.2121709999999997
O      15.5945129999999992    3.9518930000000001   -5.9131060000000000
Si     14.5253219999999992    2.7252010000000002   -6.2025550000000003
O      11.6075429999999997    5.1157870000000001   -5.1208450000000001
O      12.0978720000000006    3.7045409999999999   -2.9211450000000001
O      14.0360650000000007    5.2377929999999999   -4.0336970000000001
Si     12.7303929999999994    4.2301060000000001   -4.3016959999999997
O      10.5177099999999992    7.3986789999999996   -6.0671600000000003
O      13.1457099999999993    7.2312170000000000   -5.6407410000000002
Si     11.7911830000000002    6.3937520000000001   -6.1174099999999996
O       9.7510879999999993    8.8496710000000007   -3.9569700000000001
O      11.7845350000000000    9.6968569999999996   -5.5429469999999998
Si     10.3170500000000001    8.9334019999999992   -5.4788459999999999
H      10.7633220000000005    2.5235780000000001   -1.1120350000000001
H       9.5380870000000009    3.9437069999999999   -2.6979350000000002
H      10.9572280000000006    4.9602930000000001   -0.9905880000000000
Si     10.7872129999999995    3.7868900000000001   -1.8983070000000000
H       9.0298580000000008    6.8229309999999996   -2.5329079999999999
H       9.9985370000000007    8.7802790000000002   -1.4145099999999999
H      11.4101040000000005    7.2903430000000000   -2.7366370000000000
Si     10.0477220000000003    7.9075819999999997   -2.6200570000000001
H       6.0293080000000003    5.3701049999999997  -11.8519469999999991
H       8.3747840000000000    4.6673780000000002  -11.6847440000000002
H      10.5173769999999998    3.8872360000000001  -13.5297149999999995
Si      7.4452879999999997    5.8263439999999997  -11.8486469999999997
H      12.2710580000000000    5.0608469999999999  -14.7860279999999999
H       7.7743890000000002    6.5481030000000002  -13.1134769999999996
Si     11.6538690000000003    4.8480420000000004  -13.4489879999999999
H       5.4652979999999998   10.3794719999999998   -9.5068739999999998
H      11.1616879999999998    6.1517720000000002  -12.8993120000000001
O       7.6266879999999997    6.8665669999999999  -10.5562909999999999
Si      5.6408149999999999   10.8063900000000004   -8.0861070000000002
O      12.8403799999999997    4.2355020000000003  -12.4484499999999993
H       5.1526300000000003   12.2007930000000009   -7.8993370000000001
H       4.9070919999999996    9.8718140000000005   -7.1835649999999998
Si      8.8414009999999994    7.5668709999999999   -9.7572179999999999
O       7.2578379999999996   10.7979780000000005   -7.6958979999999997
O       9.7141070000000003    8.5770339999999994  -10.7502340000000007
Si     13.6002189999999992   -0.8033370000000000   -8.5437680000000000
Si     13.1297789999999992    4.2299639999999998  -10.8559680000000007
O       8.2393999999999998    8.4574350000000003   -8.5351110000000006
H      14.6317839999999997   -1.8265979999999999   -8.2206340000000004
O       9.8459450000000004    6.4005310000000000   -9.1631619999999998
O      14.4544080000000008    5.1573240000000000  -10.4695529999999994
Si      8.6024089999999998    9.9214040000000008   -7.8677669999999997
O      11.8069400000000009    4.8802139999999996  -10.1273400000000002
O      14.3863380000000003    0.5023069999999999   -9.2238579999999999
O       9.7157509999999991   10.6766749999999995   -8.8243030000000005
O      13.3603290000000001    2.7104219999999999  -10.3112610000000000
Si     11.4332840000000004    6.0986170000000000   -9.1390940000000001
Si     14.4175470000000008    2.1154020000000000   -9.2050120000000000
O      12.2390860000000004    7.4207840000000003   -9.8683879999999995
O      15.9233130000000003    2.6939780000000000   -9.5776009999999996
O       9.2503650000000004    9.7441969999999998   -6.3806000000000003
O      11.9889759999999992    5.8375250000000003   -7.6441580000000000
O      14.0195600000000002    2.7558340000000001   -7.7550730000000003
H      15.7937740000000009    4.5919980000000002   -6.6309420000000001
H      14.8224520000000002    4.8851259999999996   -4.5205260000000003
H      13.6207820000000002    6.6851589999999996   -4.9572979999999998
H      12.4842530000000007    9.0184130000000007   -5.4294830000000003
H      10.6516610000000007    8.3249960000000005  -10.8382909999999999
H      15.2516920000000002    4.6263259999999997  -10.2732440000000000
H       9.7763439999999999   10.2356090000000002   -9.6978960000000001
H      14.0507779999999993    9.0741689999999995  -10.0628209999999996
H      16.5251899999999985    2.1021980000000000  -10.0501579999999997
H      12.6180640000000004   -1.3327789999999999   -9.5310769999999998
H      12.8954979999999999   -0.3644200000000000   -7.3017130000000003
N      14.8251100000000005    7.5802310000000004   -8.8326049999999992
C      15.5422259999999994    7.2198729999999998   -7.7221310000000001
O      16.0453329999999994    6.1067619999999998   -7.5918559999999999
N      15.7613900000000005    8.2319010000000006   -6.7547930000000003
C      16.5266480000000016    7.9401029999999997   -5.5467899999999997
C      15.0876540000000006    9.4024909999999995   -6.9176370000000000
N      15.0688089999999999   10.4912019999999995   -6.0722220000000000
C      14.2426709999999996   11.4336640000000003   -6.5938109999999996
N      13.7555920000000000   10.9795829999999999   -7.7459400000000000
C      12.7527830000000009   11.6699560000000009   -8.5654699999999995
C      14.2683180000000007    9.7121960000000005   -7.9774170000000000
C      13.9504269999999995    8.7166090000000001   -9.0242280000000008
O      12.5527210000000000    8.4121620000000004   -8.8165230000000001
H      14.7008060000000000    6.7992710000000001   -9.4981340000000003
H      16.9743059999999986    6.9506350000000001   -5.6778370000000002
H      17.3338189999999983    8.6743389999999998   -5.4150179999999999
H      15.8762209999999993    7.9225269999999997   -4.6596739999999999
H      14.0023780000000002   12.3827669999999994   -6.1318279999999996
H      13.0721460000000000   11.6485959999999995   -9.6137029999999992
H      11.7752770000000009   11.1764320000000001   -8.4548260000000006
H      12.6852040000000006   12.7090390000000006   -8.2293190000000003
H      15.5595800000000004   10.5821120000000004   -5.1879270000000002
