   94
 
H      12.8825500000000002   -0.8378120000000000   -4.5103710000000001
O      14.6971810000000005    0.8337170000000000   -5.2834500000000002
H      15.1881710000000005   -1.1173759999999999   -3.7150430000000001
H      14.6245790000000007   -1.6071580000000001   -6.0431949999999999
Si     14.3273139999999994   -0.7349909999999999   -4.8686010000000000
O      12.9153509999999994    2.7364259999999998   -4.6519069999999996
O      15.2407059999999994    3.4564520000000001   -5.5522150000000003
Si     14.0892379999999999    2.2788149999999998   -5.6838050000000004
O      11.4855090000000004    4.9822970000000000   -4.9333140000000002
O      11.6716709999999999    3.7781430000000000   -2.5647579999999999
O      13.7822099999999992    5.0823169999999998   -3.5921560000000001
Si     12.4620409999999993    4.1257070000000002   -3.9234350000000000
O      10.2298050000000007    7.1485180000000001   -5.8456320000000002
O      12.6272380000000002    7.3999449999999998   -4.6695250000000001
Si     11.6670839999999991    6.4401580000000003   -5.6359990000000000
O       8.8682879999999997    8.5933489999999999   -4.0665079999999998
O      10.0609669999999998    9.8247520000000002   -6.1593359999999997
Si      9.2776960000000006    8.4622729999999997   -5.6264159999999999
H      11.9268439999999991    3.6463239999999999   -0.0188960000000000
H       9.7259220000000006    4.1701730000000001   -0.9572910000000000
H      11.5088310000000007    5.8396850000000002   -1.0169130000000000
Si     11.1951529999999995    4.3801449999999997   -1.0895950000000001
H       9.1669020000000003    6.2910909999999998   -2.9336009999999999
H       7.7966420000000003    7.9972989999999999   -1.8278369999999999
H      10.2332149999999995    8.2352070000000008   -1.9202200000000000
Si      9.0193960000000004    7.7488479999999997   -2.6393730000000000
H       7.9558619999999998    9.2102229999999992  -12.2276679999999995
H       9.5033239999999992    7.6883629999999998  -13.3541159999999994
H       9.9570399999999992    5.3420050000000003  -11.8380290000000006
Si      9.3856249999999992    8.9505940000000006  -12.5638980000000000
H      11.0165839999999999    4.6807480000000004  -13.9544940000000004
H       9.9515499999999992   10.0811270000000004  -13.3575579999999992
Si     11.2467410000000001    5.1491730000000002  -12.5611870000000003
H       5.6329490000000000    7.6732279999999999  -10.9348829999999992
H      12.0076129999999992    6.4370630000000002  -12.5640920000000005
O      10.2956660000000007    8.8123980000000000  -11.1833510000000000
Si      4.9835929999999999    7.5977209999999999   -9.5898420000000009
O      12.1603720000000006    3.9788749999999999  -11.7912359999999996
H       3.9344860000000001    8.6516699999999993   -9.4775869999999998
H       4.3897139999999997    6.2475740000000002   -9.3828580000000006
Si     10.1550279999999997    8.6075490000000006   -9.5791400000000007
O       6.1272970000000004    7.8240400000000001   -8.4051679999999998
O      10.6479320000000008   10.0065139999999992   -8.8652020000000000
Si     12.5862800000000004   -1.2071570000000000   -8.6856960000000001
Si     12.8584499999999995    3.9164089999999998  -10.3308579999999992
O       8.6340880000000002    8.2132710000000007   -9.1546660000000006
H      13.3551199999999994   -2.4782259999999998   -8.7697400000000005
O      11.1271280000000008    7.3860120000000000   -9.1222159999999999
O      14.4288519999999991    4.4814420000000004  -10.4081159999999997
Si      7.4629820000000002    8.6702700000000004   -8.0908870000000004
O      12.0435789999999994    4.8955109999999999   -9.3031229999999994
O      13.7000379999999993    0.0353420000000000   -8.7833030000000001
O       7.1218740000000000   10.2670169999999992   -8.2473360000000007
O      12.8791209999999996    2.3833340000000001   -9.7691839999999992
Si     12.3168769999999999    6.3901820000000003   -8.6994380000000007
Si     13.8457080000000001    1.6393650000000000   -8.6753889999999991
O      13.7518100000000008    6.9544920000000001   -9.2916840000000001
O      15.4231780000000001    2.0726439999999999   -8.9979890000000005
O       7.9654210000000001    8.3252310000000005   -6.5657829999999997
O      12.4126399999999997    6.2982649999999998   -7.0771150000000000
O      13.4785380000000004    2.2288180000000000   -7.2031169999999998
H      15.9880870000000002    3.4397790000000001   -6.1651949999999998
H      14.5782600000000002    4.8407479999999996   -4.1050700000000004
H      13.1925340000000002    6.8311440000000001   -4.0936250000000003
H      10.9461530000000007   10.0399469999999997   -5.8045349999999996
H      10.4806109999999997   10.0246139999999997   -7.8904360000000002
H      15.0830870000000008    3.8283659999999999  -10.0907090000000004
H       7.7218229999999997   10.8976220000000001   -7.8266299999999998
H      14.2561420000000005    6.2133830000000003   -9.6969309999999993
H      15.9749189999999999    1.3777040000000000   -9.3854830000000007
H      11.6223159999999996   -1.0872420000000000   -9.8166159999999998
H      11.8692569999999993   -1.1109629999999999   -7.3799080000000004
N      14.2737459999999992    8.8417800000000000   -6.3654539999999997
C      15.3252009999999999    8.0644899999999993   -6.8427959999999999
O      15.7244539999999997    7.0680339999999999   -6.2762690000000001
N      15.9353180000000005    8.5343739999999997   -8.0452250000000003
C      17.0085310000000014    7.7494600000000000   -8.6485830000000004
C      15.3358340000000002    9.5559759999999994   -8.6937739999999994
N      15.6329180000000001   10.0726390000000006   -9.9336169999999999
C      14.7694550000000007   11.0911550000000005  -10.1967169999999996
N      13.9456830000000007   11.2380490000000002   -9.1634659999999997
C      12.8477119999999996   12.2147240000000004   -9.0832920000000001
C      14.2692549999999994   10.2890080000000008   -8.2039930000000005
C      13.6595680000000002    9.9545860000000008   -6.9322540000000004
O      12.7196520000000000   10.5415440000000000   -6.4018439999999996
H      13.7550010000000000    8.4024719999999995   -5.5676180000000004
H      17.2999200000000002    6.9933810000000003   -7.9133599999999999
H      16.6575160000000011    7.2453099999999999   -9.5608020000000007
H      17.8735490000000006    8.3898709999999994   -8.8690329999999999
H      14.7625840000000004   11.6842910000000000  -11.1033740000000005
H      11.8980329999999999   11.6607459999999996   -9.1162390000000002
H      12.9306459999999994   12.7629880000000000   -8.1394369999999991
H      12.9358450000000005   12.8993889999999993   -9.9323639999999997
H      16.3460880000000017    9.7405620000000006  -10.5761090000000006
