   94
 
H      13.8526980000000002   -3.2395440000000000   -5.9220600000000001
O      13.9355180000000001   -0.6910800000000000   -5.8946740000000002
H      15.9080030000000008   -2.1557320000000000   -5.1353819999999999
H      15.3456919999999997   -2.1299100000000002   -7.5090089999999998
Si     14.7894459999999999   -2.1000640000000002   -6.1197270000000001
O      12.8082309999999993    1.6490970000000000   -5.4587240000000001
O      15.2921080000000007    1.6335630000000001   -6.3329380000000004
Si     13.8389220000000002    0.8326080000000000   -6.4288809999999996
O      12.0875310000000002    4.2152459999999996   -5.7972200000000003
O      12.0564979999999995    3.1252000000000000   -3.3660700000000001
O      14.3918049999999997    3.6511339999999999   -4.5709989999999996
Si     12.8260269999999998    3.1317610000000000   -4.7911570000000001
O      11.1803720000000002    6.7409949999999998   -5.6428370000000001
O      13.7128150000000009    6.2492539999999996   -5.1073040000000001
Si     12.4317229999999999    5.7852280000000000   -6.0594250000000001
O       9.7761910000000007    8.4468200000000007   -4.1265229999999997
O      12.4727040000000002    8.6168940000000003   -4.2403969999999997
Si     11.0796220000000005    8.2795290000000001   -5.0647469999999997
H      11.1781849999999991    3.7256819999999999   -1.0488869999999999
H       9.8679369999999995    4.4510569999999996   -2.9950150000000000
H      11.9773820000000004    5.5449270000000004   -2.4770680000000000
Si     11.2372969999999999    4.2427229999999998   -2.4425290000000000
H       8.0615340000000000    6.7013319999999998   -3.3269590000000000
H       8.1118140000000007    8.9126030000000007   -2.2665020000000000
H       9.8859569999999994    7.2957590000000003   -1.8163350000000000
Si      8.9311769999999999    7.8118369999999997   -2.8454630000000001
H       7.3864150000000004    7.3645990000000001   -9.9669779999999992
H       7.7351619999999999    6.3042860000000003  -12.1418830000000000
H       9.3574090000000005    4.4373469999999999  -10.5844249999999995
Si      8.0093420000000002    7.5169410000000001  -11.3161600000000000
H       9.0149460000000001    3.0196459999999998  -12.5492390000000000
H       7.4764030000000004    8.7306810000000006  -11.9965639999999993
Si      9.9558440000000008    3.9447320000000001  -11.8598239999999997
H       7.3816490000000003   10.3737899999999996   -9.4905849999999994
H      10.3019739999999995    5.0964229999999997  -12.7420570000000009
O       9.6541479999999993    7.6763539999999999  -11.1618370000000002
Si      7.1507399999999999   10.2502370000000003   -8.0181240000000003
O      11.3344140000000007    3.0728840000000002  -11.5222899999999999
H       6.7669660000000000   11.5758310000000009   -7.4539169999999997
H       6.0874689999999996    9.2411729999999999   -7.7528389999999998
Si     10.8498059999999992    7.8182580000000002  -10.0870200000000008
O       8.5478900000000007    9.7396429999999992   -7.2676520000000000
O      11.8126230000000003    9.0553559999999997  -10.5878820000000005
Si     12.8625330000000009   -2.1863250000000001   -9.8814290000000007
Si     12.7899320000000003    3.1812950000000000  -10.8242569999999994
O      10.2532709999999998    8.1452550000000006   -8.5913599999999999
H      13.6722479999999997   -3.3628740000000001  -10.3010479999999998
O      11.6661409999999997    6.4014309999999996  -10.0011430000000008
O      13.8703730000000007    3.9981580000000001  -11.7759979999999995
Si     10.0963550000000009    9.5003969999999995   -7.6831090000000000
O      12.7632560000000002    4.0611280000000001   -9.4356320000000000
O      13.8507750000000005   -0.8486440000000000   -9.9856189999999998
O      10.6921999999999997   10.8017920000000007   -8.4987510000000004
O      13.2981029999999993    1.6727650000000001  -10.5095229999999997
Si     12.8736549999999994    5.6682629999999996   -9.1931989999999999
Si     13.9914559999999994    0.6665470000000000   -9.4350299999999994
O      14.3437610000000006    6.2521399999999998   -9.6902620000000006
O      15.5880679999999998    1.0402430000000000   -9.1986010000000000
O      10.9785529999999998    9.3389769999999999   -6.3062250000000004
O      12.8148549999999997    6.0387540000000000   -7.6174670000000004
O      13.2930139999999994    0.8730260000000000   -7.9729760000000001
H      15.8039939999999994    1.6119760000000001   -7.1635369999999998
H      15.0290719999999993    3.1341440000000000   -5.1123719999999997
H      14.2481349999999996    5.4602630000000003   -4.8412750000000004
H      13.0374610000000004    7.8152460000000001   -4.2167110000000001
H      12.6897339999999996    9.1241959999999995  -10.1578759999999999
H      13.8754860000000004    3.7992569999999999  -12.7224989999999991
H      11.0910910000000005   10.5613139999999994   -9.3594880000000007
H      14.6495420000000003    5.8834679999999997  -10.5370130000000000
H      16.2316730000000007    0.6856170000000000   -9.8274019999999993
H      11.6904260000000004   -2.0032969999999999  -10.7859269999999992
H      12.3965029999999992   -2.3483849999999999   -8.4717800000000008
N      15.2528020000000009    8.1072570000000006   -7.7494290000000001
C      15.9439320000000002    7.5395459999999996   -6.6787299999999998
O      16.5108330000000016    6.4703350000000004   -6.7490500000000004
N      15.9526520000000005    8.3149090000000001   -5.4808389999999996
C      16.5785879999999999    7.7612639999999997   -4.2817860000000003
C      15.2452089999999991    9.4663609999999991   -5.4632630000000004
N      15.0398099999999992   10.3238319999999995   -4.4086819999999998
C      14.2385570000000001   11.3370110000000004   -4.8293030000000003
N      13.9575300000000002   11.1663370000000004   -6.1164360000000002
C      13.1694390000000006   12.0932130000000004   -6.9411969999999998
C      14.5685850000000006    9.9963250000000006   -6.5472080000000004
C      14.5114350000000005    9.2859010000000008   -7.8076290000000004
O      13.8953620000000004    9.6412080000000007   -8.8100249999999996
H      15.1533949999999997    7.4735909999999999   -8.5664219999999993
H      17.0736619999999988    6.8328210000000000   -4.5823729999999996
H      17.3297600000000003    8.4571419999999993   -3.8836960000000000
H      15.8199389999999998    7.5308590000000004   -3.5202260000000001
H      13.8939050000000002   12.1561350000000008   -4.2098329999999997
H      13.8083580000000001   12.4836150000000004   -7.7414980000000000
H      12.3126510000000007   11.5657340000000008   -7.3809050000000003
H      12.8252070000000007   12.9109850000000002   -6.3005599999999999
H      15.3192029999999999   10.1773729999999993   -3.4434070000000001
