   94
 
H      11.4362530000000007    0.2037980000000000   -4.7455959999999999
O      13.9850139999999996    0.5920510000000000   -4.9257929999999996
H      12.8862400000000008   -0.5550550000000000   -2.9230849999999999
H      12.9074500000000008   -1.7217530000000001   -5.0757009999999996
Si     12.7568979999999996   -0.4008020000000000   -4.3994380000000000
O      13.3698060000000005    3.2036169999999999   -5.1413469999999997
O      15.8231940000000009    2.4425780000000001   -5.5567849999999996
Si     14.2502700000000004    1.9694220000000000   -5.7373409999999998
O      12.6892759999999996    5.7966360000000003   -5.0255080000000003
O      13.2384640000000005    4.4867059999999999   -2.8044920000000002
O      15.1875129999999992    5.1245830000000003   -4.5841399999999997
Si     13.6299469999999996    4.6231760000000000   -4.3669659999999997
O      11.8504579999999997    8.0036509999999996   -6.3102190000000000
O      14.4212220000000002    7.6014410000000003   -6.0662159999999998
Si     12.9849479999999993    6.8385600000000002   -6.2501780000000000
O       9.9415730000000000    7.5650050000000002   -4.4643480000000002
O      10.7041629999999994   10.0917739999999991   -5.0957080000000001
Si     10.4646120000000007    8.5508970000000009   -5.6259050000000004
H      13.5233939999999997    3.0642070000000001   -0.6969919999999999
H      11.8913899999999995    2.3280409999999998   -2.3659530000000002
H      11.4396880000000003    4.3070320000000004   -1.0004290000000000
Si     12.4998020000000007    3.5101619999999998   -1.6838860000000000
H      10.1261320000000001    5.2145750000000000   -3.4559570000000002
H       8.9901970000000002    6.9651639999999997   -2.1852999999999998
H      11.4226299999999998    7.0195400000000001   -2.4247269999999999
Si     10.1359499999999993    6.6579670000000002   -3.0880010000000002
H       8.5898810000000001    8.9069880000000001  -13.4201449999999998
H       9.0222359999999995    6.5144659999999996  -13.6978489999999997
H       9.5509380000000004    4.3136960000000002  -11.7691409999999994
Si      9.5687490000000004    7.8062950000000004  -13.1930940000000003
H      10.4711639999999999    3.4204420000000000  -13.8657380000000003
H      10.8682269999999992    8.1171270000000000  -13.8575429999999997
Si     10.7909439999999996    4.0220539999999998  -12.5440220000000000
H       6.9165489999999998    9.0328459999999993  -11.0983099999999997
H      11.5540260000000004    5.2985480000000003  -12.7328840000000003
O       9.8128799999999998    7.6441299999999996  -11.5552729999999997
Si      6.5720039999999997    8.0717949999999998  -10.0060310000000001
O      11.7437059999999995    2.9417130000000000  -11.7099580000000003
H       5.1594360000000004    8.2676499999999997   -9.5756250000000005
H       6.7962119999999997    6.6735470000000001  -10.4717549999999999
Si     10.7748510000000000    7.9648440000000003  -10.3014240000000008
O       7.5489509999999997    8.3513830000000002   -8.6840189999999993
O      12.2063620000000004    8.6877089999999999  -10.7768169999999994
Si     11.9260389999999994   -1.5863760000000000   -8.3051879999999993
Si     12.7251239999999992    3.0129220000000001  -10.4218200000000003
O      10.0737930000000002    9.0634189999999997   -9.3252530000000000
H      12.3186780000000002   -2.9324960000000000   -7.8068759999999999
O      11.1136929999999996    6.6009929999999999   -9.4794909999999994
O      14.2442130000000002    3.5059179999999999  -10.8741570000000003
Si      8.8533259999999991    9.1949710000000007   -8.2320460000000004
O      12.1694990000000001    4.1566590000000003   -9.3794009999999997
O      13.3144629999999999   -0.6572650000000000   -8.3238310000000002
O       8.5907499999999999   10.8241569999999996   -8.1997760000000000
O      12.7640759999999993    1.5603480000000001   -9.6919789999999999
Si     12.4696630000000006    5.7369659999999998   -9.1681509999999999
Si     13.8032629999999994    0.8544910000000000   -8.6330910000000003
O      13.6136510000000008    6.2789710000000003  -10.2466939999999997
O      15.3238029999999998    0.8659760000000000   -9.2765459999999997
O       9.3206969999999991    8.6477699999999995   -6.7787400000000000
O      12.9630720000000004    6.0067000000000004   -7.6548509999999998
O      13.8558669999999999    1.7920370000000001   -7.3076270000000001
H      16.5231209999999997    1.7995380000000001   -5.7355499999999999
H      15.8119630000000004    4.4025550000000004   -4.7851840000000001
H      15.1129079999999991    7.0463350000000000   -5.6616150000000003
H      11.2917980000000000   10.2262629999999994   -4.3380559999999999
H      12.9055099999999996    8.0174529999999997  -10.9396719999999998
H      14.9675069999999995    2.8777180000000002  -10.7154319999999998
H       7.8466529999999999   11.1252980000000008   -7.6595500000000003
H      14.1768479999999997    5.5678390000000002  -10.6135870000000008
H      15.6049050000000005    0.0653390000000000   -9.7415079999999996
H      11.3725240000000003   -1.6708300000000000   -9.6872199999999999
H      10.9284149999999993   -0.9587120000000000   -7.3889779999999998
N      15.0274900000000002   10.9833210000000001   -5.7299389999999999
C      15.6186030000000002   10.2105650000000008   -6.7351390000000002
O      16.7164889999999993    9.7086330000000007   -6.6136650000000001
N      14.8408850000000001   10.0690629999999999   -7.9123289999999997
C      15.3329970000000007    9.2033109999999994   -8.9837140000000009
C      13.6428159999999998   10.7035499999999999   -7.9737460000000002
N      12.7399570000000004   10.7105680000000003   -9.0099769999999992
C      11.6963430000000006   11.4960269999999998   -8.6482559999999999
N      11.9080119999999994   11.9913969999999992   -7.4313580000000004
C      10.9942390000000003   12.8774110000000004   -6.7018129999999996
C      13.1246519999999993   11.5049019999999995   -6.9717399999999996
C      13.7855709999999991   11.6397630000000003   -5.6933600000000002
O      13.3680730000000008   12.2119610000000005   -4.6951320000000001
H      15.5807730000000006   11.0359339999999992   -4.8754330000000001
H      16.3773829999999982    8.9753010000000000   -8.7517399999999999
H      14.7634109999999996    8.2657869999999996   -9.0230820000000005
H      15.2798569999999998    9.7286420000000007   -9.9466959999999993
H      10.8057370000000006   11.6620650000000001   -9.2416479999999996
H      10.5791229999999992   12.3218639999999997   -5.8539719999999997
H      11.5475739999999991   13.7517049999999994   -6.3444510000000003
H      10.1956279999999992   13.1783889999999992   -7.3852609999999999
H      12.6839849999999998   10.0266959999999994   -9.8039090000000009
