   81
 
O       5.9761850000000001   10.5699649999999998   -5.2510630000000003
H       4.7364680000000003    9.3110929999999996   -3.3548040000000001
H       6.7157229999999997   10.5958659999999991   -2.7714240000000001
H       4.6692239999999998   11.7532340000000008   -3.4198529999999998
Si      5.5138389999999999   10.5488800000000005   -3.6639860000000000
H      13.0032320000000006   -0.8151650000000000   -6.2958740000000004
O      14.6924600000000005    0.8068890000000000   -5.1964160000000001
H      14.4092859999999998   -1.6076770000000000   -4.4490540000000003
H      15.3906120000000008   -1.1969650000000001   -6.6490739999999997
Si     14.3557849999999991   -0.7539820000000000   -5.6687620000000001
O      13.2843160000000005    2.9364420000000000   -4.4706190000000001
O      15.7452179999999995    3.2498410000000000   -5.5149999999999997
Si     14.3363069999999997    2.3444330000000000   -5.5608930000000001
O      11.4861229999999992    4.9152129999999996   -4.8076059999999998
O      12.4926030000000008    4.4044169999999996   -2.4117769999999998
O      14.0256840000000000    5.5236450000000001   -4.3506190000000000
Si     12.8201120000000000    4.4366329999999996   -4.0012049999999997
O       9.5799129999999995    6.7048810000000003   -5.3895090000000003
O      12.0929090000000006    7.4898619999999996   -5.3495619999999997
Si     11.0937760000000001    6.2193560000000003   -5.7172049999999999
O       7.5393949999999998    8.4360499999999998   -5.3093420000000000
O       8.5648499999999999    7.4290649999999996   -3.0725970000000000
O       9.9503860000000000    9.2415050000000001   -4.5596589999999999
Si      8.9060579999999998    7.9559959999999998   -4.5718230000000002
O       8.3621309999999998   10.6813880000000001   -6.5596019999999999
Si      7.0587910000000003    9.7618760000000009   -6.1695219999999997
H      11.7424809999999997    4.9955829999999999   -0.0568240000000000
H      10.0004089999999994    4.6120939999999999   -1.7385020000000000
H      11.3482020000000006    6.6472530000000001   -1.8172919999999999
Si     11.3494720000000004    5.1907670000000001   -1.4809340000000000
H       8.6499939999999995    6.8097890000000003   -0.6097910000000000
H       6.6329650000000004    7.8996409999999999   -1.4362070000000000
H       8.6983689999999996    9.1820360000000001   -1.1738569999999999
Si      8.1214010000000005    7.8537640000000000   -1.5394170000000000
H       6.7303020000000000    6.6673999999999998  -12.7393710000000002
H       8.7999729999999996    6.4727810000000003  -14.0179010000000002
H      10.2704780000000007    4.2942380000000000  -12.8601899999999993
Si      8.0656540000000003    7.2835510000000001  -13.0015149999999995
H      12.1350210000000001    4.3395149999999996  -14.4437970000000000
H       7.8803039999999998    8.6746309999999998  -13.5139750000000003
Si     11.6418040000000005    4.8197939999999999  -13.1212890000000009
H       5.2881220000000004    9.2967350000000000  -12.3781440000000007
H      11.6272719999999996    6.3120399999999997  -13.0875140000000005
O       8.9801699999999993    7.2878520000000000  -11.6222119999999993
Si      4.2625960000000003    9.3087389999999992  -11.2893519999999992
O      12.7026190000000003    4.2329829999999999  -11.9738950000000006
H       3.4094310000000001   10.5261399999999998  -11.4244400000000006
H       3.4097610000000000    8.0881559999999997  -11.3993280000000006
Si      8.9387699999999999    7.9151800000000003  -10.1149920000000009
O       4.9829900000000000    9.3122480000000003   -9.8001980000000000
O       9.7965020000000003    9.3156700000000008  -10.0087309999999992
Si     14.5358649999999994   -0.2623660000000000   -9.8108350000000009
Si     12.9000590000000006    4.4895659999999999  -10.3845670000000005
O       7.3997349999999997    8.2164120000000000   -9.6975180000000005
O       9.5721570000000007    6.7889809999999997   -9.0964799999999997
O      14.0631039999999992    5.6287240000000001  -10.0813450000000007
Si      6.4653429999999998    9.4561419999999998   -9.1532649999999993
O      11.4897410000000004    5.0387620000000002   -9.7723200000000006
O      14.9466420000000006    1.0926720000000001   -8.9392549999999993
O       7.0763790000000002   10.9066379999999992   -9.6080609999999993
O      13.3269889999999993    3.0724030000000000   -9.6719639999999991
Si     11.0914190000000001    6.2989540000000002   -8.8061989999999994
Si     14.4088630000000002    2.5783529999999999   -8.5653009999999998
O      12.0852670000000000    7.5875420000000000   -9.0975149999999996
O      15.6423520000000007    3.6824859999999999   -8.5651229999999998
O       6.3046259999999998    9.3080580000000008   -7.5337509999999996
O      11.2155149999999999    5.7666750000000002   -7.2705190000000002
O      13.7350860000000008    2.5302190000000002   -7.0648799999999996
H      16.4613599999999991    2.8675820000000001   -4.9869260000000004
H      14.8742049999999999    5.1305370000000003   -4.6155889999999999
H      12.9990279999999991    7.2251589999999997   -5.1062019999999997
H      10.8832280000000008    8.9765709999999999   -4.6839779999999998
H       9.1225419999999993   10.5393589999999993   -5.9647560000000004
H      10.7391539999999992    9.1837359999999997   -9.8049219999999995
H      14.8597249999999992    5.2707110000000004   -9.6446719999999999
H       8.0156290000000006   11.0460189999999994   -9.4074139999999993
H      12.9835700000000003    7.3265779999999996   -9.3747880000000006
H      16.0921680000000009    3.7770260000000002   -7.7078930000000003
H      14.1918570000000006    0.1164490000000000  -11.2124400000000009
H      13.3696850000000005   -0.9358880000000001   -9.1645789999999998
H      15.7188110000000005   -1.1684319999999999   -9.7890309999999996
