  468
 
O       1.5544750000000001  -11.6571060000000006    3.2926630000000001
O       3.8083909999999999  -10.6100069999999995    2.0802640000000001
O       5.7948089999999999   -9.3626699999999996    3.4968230000000000
O       7.7679970000000003   -8.7302780000000002    1.6536860000000000
O       1.4476270000000000  -11.1024150000000006    6.0192439999999996
O       3.0196660000000000   -9.7294409999999996    7.9872120000000004
O       5.4655699999999996   -8.9595310000000001    6.9430949999999996
O       7.4223179999999997   -7.9553620000000000    8.6671990000000001
O       0.8497780000000000   10.4378700000000002    1.4101060000000001
O      -1.4648340000000000    9.2443249999999999    1.9907750000000000
O       0.2291510000000000   10.0098350000000007    3.9680499999999999
O      -1.1351540000000000   11.8749690000000001    2.6192400000000000
Si     -0.3919370000000000   10.3896829999999998    2.4925459999999999
O      -4.0056859999999999    8.4003960000000006    1.8773720000000000
O      -3.2535409999999998   10.9466950000000001    1.0496600000000000
Si     -2.8768919999999998    9.3208610000000007    1.1450350000000000
O      -6.4255570000000004    7.4154239999999998    2.3896120000000001
O      -4.7588249999999999    8.1600610000000007    4.3853819999999999
O      -5.9441620000000004   10.0662640000000003    2.8338320000000001
Si     -5.3097950000000003    8.5464810000000000    2.8938060000000001
O      -8.7886089999999992    6.4791720000000002    1.4737720000000001
O      -8.1256909999999998    9.1166909999999994    1.2160150000000001
Si     -7.5687080000000000    7.5405220000000002    1.2186720000000000
O      -9.2276930000000004    3.9202230000000000    2.1443949999999998
O      -8.9497269999999993    5.7914529999999997    4.0415299999999998
O     -11.1712220000000002    5.8290829999999998    2.3916810000000002
Si     -9.5634470000000000    5.5027100000000004    2.5324749999999998
O      -9.4846579999999996    1.3477040000000000    2.8333290000000000
O     -11.6813719999999996    2.8657469999999998    2.2948819999999999
Si    -10.0970180000000003    2.5661269999999998    1.8822559999999999
O      -9.3352909999999998   -1.1824060000000001    1.8601340000000000
O      -9.4489439999999991   -0.7715140000000000    4.4817020000000003
O     -11.6457160000000002   -0.1929480000000000    2.9292889999999998
Si     -9.9813310000000008   -0.1985560000000000    3.0257299999999998
O      -8.3353540000000006   -3.5927099999999998    2.5684979999999999
O     -11.0164919999999995   -3.2144219999999999    2.1668189999999998
Si     -9.4793500000000002   -2.8058510000000001    1.6713490000000000
O      -6.9851500000000000   -5.8277239999999999    2.0009380000000001
O      -7.6438670000000002   -5.3052060000000001    4.5295750000000004
O      -9.6489419999999999   -5.8725959999999997    2.7427000000000001
Si     -8.1520539999999997   -5.1709670000000001    2.9643780000000000
O      -4.9471550000000004   -7.5141020000000003    2.5563460000000000
O      -6.1602490000000003   -7.6305870000000002    0.1956340000000000
O      -7.5409059999999997   -8.3907520000000009    2.4575670000000001
Si     -6.4184820000000000   -7.3540060000000000    1.8026050000000000
O      -2.7492760000000001   -9.1042749999999995    2.4408949999999998
O      -3.7886180000000000   -8.5195799999999995    4.7603470000000003
O      -5.2001970000000002  -10.1450239999999994    3.0729899999999999
Si     -4.1919170000000001   -8.8226080000000007    3.1982719999999998
O      -0.7907510000000000  -10.9275140000000004    2.1612100000000001
O      -1.6420950000000001   -9.5934229999999996    0.0246110000000000
O      -3.2853620000000001  -11.4278739999999992    1.2459929999999999
Si     -2.1253129999999998  -10.2501850000000001    1.4547079999999999
O       1.3865780000000001   -9.3742649999999994    1.9039280000000001
O       0.1124780000000000   -9.5716400000000004    4.3006140000000004
Si      0.5468780000000000  -10.3744560000000003    2.9243630000000000
O       3.5716619999999999   -8.0103310000000008    2.7256030000000000
O       3.4071570000000002   -8.7248310000000000    0.1734760000000000
Si      3.0109930000000000   -9.1848829999999992    1.6959519999999999
O       6.0307680000000001   -6.8377129999999999    2.6220270000000001
O       4.8330339999999996   -7.2212579999999997    4.9447150000000004
Si      5.0382660000000001   -7.8722310000000002    3.4577670000000000
O       8.5351230000000005   -6.1551539999999996    1.8268290000000000
Si      7.2417619999999996   -7.1546890000000003    1.5595470000000000
O       8.9437169999999995   -3.5870389999999999    2.6782560000000002
O       8.5472999999999999   -5.5580210000000001    4.4601059999999997
O      10.8395949999999992   -5.4042190000000003    2.9993470000000002
Si      9.1608970000000003   -5.1815559999999996    2.9777749999999998
O       9.2211639999999999   -1.0175810000000001    1.8781099999999999
O       9.3541229999999995   -3.0622010000000000    0.1153730000000000
O      11.3625609999999995   -2.5841229999999999    1.9411780000000001
Si      9.7200000000000006   -2.5535589999999999    1.6364090000000000
O       9.1553459999999998    1.6085579999999999    2.5320200000000002
O       9.2432569999999998   -0.2953380000000000    4.4280090000000003
O      11.4306920000000005    0.2595120000000000    2.8425579999999999
Si      9.7710980000000003    0.1474830000000000    2.9292880000000001
O       8.7979230000000008    4.0769460000000004    1.4620670000000000
O      11.2744979999999995    3.1695229999999999    1.7859810000000000
Si      9.7162199999999999    2.7202760000000001    1.4316230000000001
O       7.4029870000000004    6.2123869999999997    2.3560840000000001
O       9.0462120000000006    4.8306160000000000    3.9942519999999999
O      10.0138979999999993    6.4671890000000003    2.0177470000000000
Si      8.8158619999999992    5.3950300000000002    2.4586920000000001
O       5.3414720000000004    7.8066259999999996    1.6366120000000000
O       7.7981710000000000    8.8092819999999996    1.6362800000000000
Si      6.9020970000000004    7.4289230000000002    1.3464370000000001
O       3.0860340000000002    9.1526669999999992    2.3063870000000000
O       4.6878029999999997    8.0919960000000000    4.1891140000000000
O       5.4632430000000003   10.2967980000000008    2.7174849999999999
Si      4.6365520000000000    8.8475219999999997    2.7307890000000001
O       3.1468880000000001   11.8048739999999999    1.6642950000000001
Si      2.4778940000000000   10.3402069999999995    1.3082130000000001
O       0.9487020000000000   10.4455489999999998    6.5046970000000002
O      -1.3739349999999999    9.1558589999999995    5.9598610000000001
O      -1.1117999999999999   11.8257490000000001    5.5157800000000003
Si     -0.3501890000000000   10.3487010000000001    5.4832850000000004
O      -3.7527860000000000    8.1702329999999996    6.8340500000000004
O      -1.7712950000000001    8.4319380000000006    8.5519239999999996
O      -2.9772029999999998   10.6755849999999999    7.5589469999999999
Si     -2.4723069999999998    9.1319130000000008    7.2333360000000004
O      -6.0701679999999998    6.9458679999999999    6.4098080000000000
O      -5.9955059999999998    9.6754259999999999    6.2204800000000002
Si     -5.1603800000000000    8.2723709999999997    5.9827589999999997
O      -8.6883830000000000    6.2836239999999997    6.6480009999999998
O      -6.9863229999999996    5.5968080000000002    8.6398189999999992
O      -7.5596269999999999    8.1855960000000003    8.2108690000000006
Si     -7.3058649999999998    6.7075490000000002    7.4689059999999996
O      -8.5359800000000003    3.7315520000000002    5.7581709999999999
O     -10.9160819999999994    5.0425670000000000    5.7068870000000000
Si     -9.2780660000000008    5.2220269999999998    5.5430229999999998
O      -8.5542269999999991    1.0651999999999999    6.2587200000000003
O      -7.7301890000000002    2.8971480000000001    8.1034640000000007
O     -10.3858590000000000    2.6729270000000001    7.4651920000000000
Si     -8.8248230000000003    2.5797639999999999    6.8836690000000003
O      -8.8417250000000003   -1.5202670000000000    6.9531280000000004
O     -11.0126200000000001    0.0856840000000000    6.5783509999999996
Si     -9.4677260000000008   -0.2820130000000000    6.0491679999999999
O      -9.3669860000000007   -4.0823309999999999    6.2051759999999998
O      -8.8334560000000000   -3.4991289999999999    8.8269579999999994
O     -11.1138779999999997   -2.6046610000000001    7.6666639999999999
Si     -9.4990620000000003   -2.9584109999999999    7.4196609999999996
O      -7.2901249999999997   -5.4775919999999996    7.1746020000000001
O      -9.4044120000000007   -6.7712190000000003    6.0102320000000002
Si     -8.4461239999999993   -5.4252690000000001    5.9635559999999996
O      -5.1594160000000002   -7.0276990000000001    6.5160790000000004
O      -5.7196080000000000   -6.4255950000000004    9.1227160000000005
O      -7.3990830000000001   -8.0658829999999995    7.6940809999999997
Si     -6.3602100000000004   -6.7632810000000001    7.6388840000000000
O      -2.8934989999999998   -8.2631069999999998    7.2592829999999999
O      -5.1754059999999997   -9.6862800000000000    6.8309569999999997
Si     -4.2575570000000003   -8.3908699999999996    6.3191309999999996
O      -0.9474450000000000  -10.0570020000000007    6.7178649999999998
O      -1.1016120000000000   -8.9149589999999996    9.2244229999999998
O      -2.9790179999999999  -10.6395569999999999    8.3742649999999994
Si     -1.9242189999999999   -9.4306719999999995    7.9066349999999996
O       1.1941560000000000   -8.4195989999999998    6.4750009999999998
Si      0.4375480000000000   -9.7765020000000007    5.8955869999999999
O       3.4859939999999998   -7.1593929999999997    7.2454479999999997
O       1.4386070000000000   -7.6971639999999999    8.9642280000000003
Si      2.3189250000000001   -8.2477570000000000    7.6642999999999999
O       6.0176720000000001   -6.2860459999999998    7.1676000000000002
Si      4.9754399999999999   -7.4049670000000001    6.5637580000000000
O       8.6886550000000007   -6.2013369999999997    7.0624799999999999
O       7.4184939999999999   -5.3708650000000002    9.3606040000000004
Si      7.3917999999999999   -6.3893050000000002    8.0885020000000001
O       8.3810140000000004   -3.6196259999999998    6.3472960000000000
O      10.7319440000000004   -4.8577290000000000    5.9532970000000001
Si      9.0757849999999998   -5.0627860000000000    5.9479949999999997
O       8.4159500000000005   -0.9110200000000001    6.8665550000000000
O       8.1172920000000008   -2.7381479999999998    8.8096899999999998
O      10.5338879999999993   -2.4417620000000002    7.4979990000000001
Si      8.8723709999999993   -2.4077160000000002    7.3610110000000004
O       8.6430600000000002    1.6894950000000000    6.1767899999999996
O      10.8627839999999996    0.2515790000000000    6.5858150000000002
Si      9.3050560000000004    0.2047150000000000    5.9911700000000003
O       9.4455550000000006    4.2423000000000002    6.5322269999999998
O       7.5537850000000004    3.2896640000000001    8.1139229999999998
O      10.0857460000000003    2.3651149999999999    8.3849269999999994
Si      8.9525059999999996    2.8844170000000000    7.3070959999999996
O       7.3050139999999999    5.8120820000000002    5.8015480000000004
O       9.7593660000000000    6.8008759999999997    5.7926830000000002
Si      8.8664819999999995    5.4172640000000003    5.5201870000000000
O       5.0863129999999996    7.1359890000000004    6.6264130000000003
O       6.7544339999999998    6.0152859999999997    8.4514730000000000
O       7.4552149999999999    8.2463429999999995    7.0322040000000001
Si      6.6459020000000004    6.7809090000000003    7.0030530000000004
O       2.8570609999999999    8.5774930000000005    6.1109530000000003
O       5.2116959999999999    9.8351530000000000    6.2597839999999998
Si      4.4541639999999996    8.4274430000000002    5.7863140000000000
O       1.1258300000000001    8.4482350000000004    8.2295979999999993
O       3.0811700000000002   10.3141909999999992    8.1921239999999997
Si      2.0202360000000001    9.4630179999999999    7.2577040000000004
O      -8.8875750000000000   -3.7839600000000000   -8.2872789999999998
O      -5.9755789999999998   -6.2416140000000002   -8.6464610000000004
O      -8.2674310000000002    2.6027239999999998   -8.5167430000000000
O      -0.9937820000000001   -9.1815259999999999   -8.6147340000000003
O     -11.1694010000000006   -2.8861059999999998   -7.1923139999999997
O      -7.9906720000000000    5.4294339999999996   -8.8493390000000005
Si     -9.5873019999999993   -3.3219530000000002   -6.8687040000000001
O      -7.2430690000000002   -8.3068880000000007   -7.2678029999999998
O     -10.6835920000000009    2.2487780000000002   -7.2954340000000002
Si     -6.3534709999999999   -6.8989839999999996   -7.1767760000000003
Si     -9.0278969999999994    2.1878139999999999   -7.0920870000000003
O       1.8708450000000001   -8.0826499999999992   -9.0766589999999994
O      -9.5805150000000001   -4.5244549999999997   -5.7296940000000003
O      -2.7510129999999999  -10.9194969999999998   -7.5970920000000000
O      -1.6174789999999999    8.2664890000000000   -9.0786590000000000
Si     -1.6941539999999999   -9.6769619999999996   -7.2147370000000004
O      -8.8981460000000006   -1.9728209999999999   -6.2284379999999997
Si     -7.5794910000000000    6.4191089999999997   -7.6085399999999996
O      -7.3173510000000004   -5.7666719999999998   -6.4691520000000002
O      -8.0557169999999996    7.9417530000000003   -8.0344840000000008
O      -8.5830780000000004    0.6569630000000000   -6.6334470000000003
O      -9.5672119999999996   -7.2127770000000000   -5.8931550000000001
Si     -8.6740800000000000   -5.8835369999999996   -5.5049159999999997
O      -4.9691669999999997   -7.1678750000000004   -6.2976859999999997
O     -11.0417500000000004   -0.2893160000000000   -6.0646060000000004
O      -8.5156430000000007    3.2933990000000000   -6.0003399999999996
Si     -9.4086180000000006   -0.4743410000000000   -5.7595770000000002
O      -8.2605679999999992    5.9874929999999997   -6.1558279999999996
O      -2.6653680000000000   -8.5237909999999992   -6.5438609999999997
O       7.6515529999999998   -5.9809729999999997   -9.1144970000000001
O       1.2376389999999999    8.4411229999999993   -8.8098670000000006
O     -10.7336360000000006    4.8752310000000003   -5.9583870000000001
O      -5.0422339999999997   -9.8558070000000004   -6.3964499999999997
Si      2.7158669999999998   -8.6551779999999994   -7.7733699999999999
Si     -9.1482939999999999    4.7642369999999996   -5.5121830000000003
Si     -4.1689160000000003   -8.5356830000000006   -5.8606970000000000
O      -0.6260829999999999  -10.2255409999999998   -6.0782150000000001
Si     -2.3417170000000000    8.6090260000000001   -7.6493789999999997
O       3.3784559999999999  -10.1582059999999998   -8.0688659999999999
O      -5.9199580000000003    6.4073380000000002   -7.3561009999999998
O      -3.2245710000000001   10.0456489999999992   -7.6834090000000002
O       8.1276440000000001   -3.2418600000000000   -8.7008120000000009
O       6.6128270000000002    5.5560650000000003   -8.7577999999999996
O       1.5425230000000001   -8.7471859999999992   -6.6253099999999998
O      -3.4490189999999998    7.4311150000000001   -7.3135040000000000
O       7.3905419999999999    2.8503560000000001   -8.2727009999999996
Si      0.9613540000000000   -9.9901300000000006   -5.6948740000000004
Si     -4.9368210000000001    7.4698060000000002   -6.6010590000000002
Si      7.7701510000000003   -6.9032790000000004   -7.7723089999999999
O       1.8256220000000001  -11.3792580000000001   -5.8960980000000003
O      -8.1638009999999994   -5.9280549999999996   -3.9393760000000002
O       3.9144239999999999   -7.6186889999999998   -7.2888460000000004
O      -5.5706550000000004    9.0359040000000004   -6.7198989999999998
Si      2.0974100000000000    9.3528570000000002   -7.7033540000000000
O      -9.0651379999999993   -0.2659960000000000   -4.1740019999999998
O       7.9148750000000003   -8.5030509999999992   -8.2349770000000007
O      -1.2090700000000001    8.7168109999999999   -6.4381719999999998
O       3.1889219999999998   10.2930750000000000   -8.5014959999999995
O       6.4319240000000004   -6.8497199999999996   -6.8008369999999996
O      -8.9477200000000003    4.8288929999999999   -3.8858899999999998
Si      8.9077160000000006   -2.8132030000000001   -7.2896989999999997
O      -3.9857239999999998   -8.5601179999999992   -4.2294099999999997
Si      6.5732249999999999    6.4106249999999996   -7.3572189999999997
O       0.9614800000000000   10.2555320000000005   -6.9280819999999999
Si      5.2649379999999999   -7.9397950000000002   -6.3905370000000001
Si     -0.3124500000000000    9.9958629999999999   -5.9136939999999996
O       2.8639779999999999    8.3802590000000006   -6.5892720000000002
O       5.7703980000000001   -9.4976909999999997   -6.7246769999999998
Si      8.8034450000000000    2.4653489999999998   -7.4844410000000003
O     -10.2676900000000000   -5.8567580000000001   -2.1619440000000001
O       9.0906749999999992   -6.5184110000000004   -6.8331369999999998
O      -1.2822260000000001   11.3543140000000005   -5.9606610000000000
O      10.5599589999999992   -2.7777440000000002   -7.5157160000000003
O       7.4148319999999996    7.8532240000000000   -7.4945009999999996
Si     -8.6977770000000003   -5.3913549999999999   -2.4762680000000001
O     -11.3801749999999995   -0.0471760000000000   -2.6851989999999999
Si     -9.7123010000000001   -0.0090030000000000   -2.6833220000000000
O       8.5455279999999991   -3.9628120000000000   -6.1536350000000004
O       5.0313010000000000    6.8354640000000000   -6.9742439999999997
O       1.0922090000000000   -9.4906659999999992   -4.1357049999999997
O      -4.8213169999999996    7.0951389999999996   -4.9957279999999997
O       8.3838159999999995   -1.3177179999999999   -6.8599639999999997
O       9.9035700000000002    1.8878640000000000   -8.5645629999999997
O     -11.2884119999999992    5.5522489999999998   -2.6066009999999999
O       7.2314990000000003    5.5020059999999997   -6.1127159999999998
O      -5.7343060000000001  -10.1955539999999996   -2.8544390000000002
Si     -9.6733159999999998    5.2704510000000004   -2.4739949999999999
O       8.5099380000000000    1.3249629999999999   -6.2961260000000001
Si     -4.7831460000000003   -8.8279850000000000   -2.8174310000000000
Si      4.4449850000000000    8.1773690000000006   -6.1892550000000002
Si      9.3556749999999997   -5.3366970000000000   -5.7266880000000002
O       9.3289240000000007    3.8575210000000002   -6.7937269999999996
O      -8.7019330000000004   -3.7500510000000000   -2.4362119999999998
O      -9.1133839999999999   -1.1824910000000000   -1.6765980000000000
O       5.2767580000000001    9.5361659999999997   -6.6906990000000004
Si      9.2159359999999992   -0.1298410000000000   -6.0280129999999996
O      -7.6571270000000000   -5.9925709999999999   -1.3365590000000001
O      10.9910010000000007   -5.0031179999999997   -5.7275530000000003
O     -11.1844330000000003   -2.8252549999999998   -1.7850880000000000
O      -9.2465250000000001    1.4737420000000001   -2.1701250000000001
Si      8.7937560000000001    5.0971580000000003   -5.8377879999999998
O       4.8629350000000002   -7.7990690000000003   -4.8057160000000003
Si     -9.5515860000000004   -2.7402890000000002   -1.4347420000000000
O       0.2458390000000000    9.6922850000000000   -4.3987540000000003
O      -5.7865130000000002   -7.5953260000000000   -2.4425770000000000
Si      0.4616340000000000   -9.8143790000000006   -2.6574420000000001
O      -9.3510500000000008    4.0643820000000002   -1.3677370000000000
Si     -5.2655269999999996    7.8867609999999999   -3.6214140000000001
O      10.7775020000000001   -0.0554730000000000   -6.6094879999999998
O      -8.1216399999999993   -8.6096690000000002   -1.4675440000000000
O     -11.6239939999999997    2.7264870000000001   -1.7465790000000001
O       0.3809280000000000  -11.4478690000000007   -2.3353969999999999
O      -9.0041620000000009    6.6738350000000004   -1.9412760000000000
O       9.6975420000000003    6.4503849999999998   -6.2155240000000003
O      -5.6582759999999999    9.4794440000000009   -3.9580320000000002
Si     -6.9375559999999998   -7.4659110000000002   -1.2493259999999999
O      -3.6218439999999998   -8.9482979999999994   -1.6440969999999999
Si    -10.0451960000000007    2.5862980000000002   -1.2257119999999999
O      -1.0920920000000001   -9.2817139999999991   -2.5662289999999999
O       4.6060960000000000    7.9021660000000002   -4.5793699999999999
O       8.8451480000000000   -5.8402580000000004   -4.2431809999999999
O      -6.5532209999999997    7.0989959999999996   -2.9587360000000000
O      -2.6204399999999999  -11.4149189999999994   -1.7457270000000000
Si     -2.2382000000000000   -9.7991960000000002   -1.4987130000000000
Si     -7.5987929999999997    7.4914639999999997   -1.7463299999999999
Si      5.2054580000000001   -8.2569660000000002   -3.2710580000000000
O       1.3951460000000000   -9.0091850000000004   -1.5526549999999999
O      -7.9423950000000003    9.1287640000000003   -1.7016960000000001
O       9.1461699999999997   -0.5601410000000000   -4.4455900000000002
Si     -0.4421380000000000   10.1559120000000007   -2.9608140000000001
O       5.7413309999999997   -9.8372949999999992   -3.2100140000000001
O      -4.0206059999999999    7.8855639999999996   -2.5398740000000002
O       8.9990290000000002    4.6014770000000000   -4.2870910000000002
O      -0.7152040000000000   11.8045659999999994   -3.0050829999999999
O      -9.2102120000000003   -3.2126579999999998    0.0995500000000000
O       3.8320010000000000   -8.1120750000000008   -2.3779200000000000
O      -1.8952009999999999    9.4237240000000000   -2.8448660000000001
Si      3.0240140000000002   -9.1550569999999993   -1.3785019999999999
Si      4.5347049999999998    8.6672560000000001   -3.1212190000000000
O      -9.9465100000000000    2.0439479999999999    0.3239640000000000
Si      9.3696750000000009   -5.4887199999999998   -2.7240760000000002
Si     -3.1821400000000000    9.1257020000000004   -1.8509750000000000
O       3.4198309999999998  -10.7324830000000002   -1.7206530000000000
O       6.3763199999999998   -7.2441849999999999   -2.6613549999999999
O      -4.1399739999999996   10.4774870000000000   -1.6668860000000001
O       0.5977220000000000    9.7261989999999994   -1.7562519999999999
O       5.2381830000000003   10.1745000000000001   -3.1366010000000002
Si      9.6636970000000009   -0.1151320000000000   -2.9450509999999999
O      11.0588660000000001   -5.5412540000000003   -2.6829239999999999
O      -6.9212999999999996    7.1980709999999997   -0.2759360000000000
Si      8.7649299999999997    5.2028299999999996   -2.7646099999999998
O       2.9694630000000002    8.8567429999999998   -2.6889750000000001
O       8.8070160000000008   -6.6232569999999997   -1.6890419999999999
O       8.9651879999999995   -3.9495040000000001   -2.3419080000000001
O      11.3211290000000009    0.0064230000000000   -2.8493800000000000
O       5.3079190000000001    7.6703370000000000   -2.0414020000000002
Si      7.3955390000000003   -7.4459600000000004   -1.3913949999999999
O       9.9928500000000007    6.2408270000000003   -2.3310360000000001
Si      2.2266349999999999   10.0001339999999992   -1.7440789999999999
O       9.1092469999999999   -1.2822629999999999   -1.8988689999999999
O       7.7389370000000000   -9.0693470000000005   -1.2480300000000000
O       7.3749010000000004    6.0624079999999996   -2.6968359999999998
O       9.0325810000000004    1.3441940000000001   -2.5652720000000002
O       2.4179050000000002   11.5280740000000002   -2.3800750000000002
O       8.6894700000000000    3.8979889999999999   -1.7543029999999999
O      -2.6257779999999999    8.7017889999999998   -0.3709150000000000
Si      9.6926679999999994   -2.7439439999999999   -1.4627170000000000
Si      6.8791609999999999    7.3340740000000002   -1.7546839999999999
Si      9.6311280000000004    2.5646209999999998   -1.6121239999999999
O      11.3350030000000004   -2.7270249999999998   -1.7713120000000000
O       7.7379780000000000    8.7100039999999996   -2.1462750000000002
O       6.7533459999999996   -6.8621449999999999    0.0096910000000000
O      11.1688229999999997    2.9935999999999998   -2.0732460000000001
O       2.8472529999999998    9.8574669999999998   -0.2354460000000000
O       7.1028549999999999    6.8721909999999999   -0.1906680000000000
O       9.5803680000000000    2.0151170000000000   -0.0558380000000000
H       1.6417940000000000  -11.7712710000000005    4.2680980000000002
H       3.1720809999999999  -11.2429000000000006    2.5013120000000000
H       5.1863659999999996  -10.0564739999999997    3.1249579999999999
H       7.2350810000000001   -9.2284889999999997    2.3239790000000000
H       2.1006610000000001  -10.9954370000000008    6.7462770000000001
H       3.9727410000000001   -9.7207790000000003    7.7205599999999999
H       6.2396810000000000   -8.9612549999999995    7.5507289999999996
H       7.8808189999999998   -8.0901560000000003    9.5112400000000008
H      -1.9506399999999999   11.9114579999999997    2.0684650000000002
H      -3.8185570000000002   11.1716379999999997    0.2832690000000000
H      -6.7962930000000004   10.0792450000000002    2.3484029999999998
H      -8.2812049999999999    9.4514829999999996    0.3093630000000000
H     -11.7464530000000007    5.0962810000000003    2.6795939999999998
H     -12.1910059999999998    2.0546250000000001    2.4717519999999999
H     -12.0217220000000005   -1.0786700000000000    2.7769750000000002
H     -11.0925840000000004   -4.1586210000000001    2.4026310000000000
H      -9.6942240000000002   -6.8151700000000002    2.9802510000000000
H      -7.1571049999999996   -9.2582050000000002    2.6902439999999999
H      -4.8259249999999998  -10.8512369999999994    2.5076939999999999
H      -3.2791169999999998  -11.8378929999999993    0.3594820000000000
H      11.1144010000000009   -6.2988080000000002    2.7352720000000001
H      11.6871060000000000   -3.4693090000000000    2.1879360000000001
H      11.8545459999999991   -0.5955410000000000    2.6334710000000001
H      11.8195580000000007    2.4300959999999998    2.1129449999999999
H      10.8791379999999993    6.0557710000000000    1.8537300000000001
H       8.7520749999999996    8.6450899999999997    1.7318469999999999
H       6.4050539999999998   10.1917069999999992    2.4823110000000002
H       4.0531519999999999   11.7159250000000004    2.0197440000000002
H      -1.2693960000000000   12.1640490000000003    4.6064049999999996
H      -0.7931600000000000    8.4033549999999995    8.4905609999999996
H      -2.6419839999999999   11.3446580000000008    6.9317310000000001
H      -6.5636770000000002    9.6401190000000003    7.0134129999999999
H      -7.1568420000000001    4.6588419999999999    8.4099280000000007
H      -8.2204669999999993    8.1664259999999995    8.9194479999999992
H     -11.1367580000000004    4.3876510000000000    6.3967729999999996
H      -7.8518129999999999    2.3720889999999999    8.9119220000000006
H     -10.8931179999999994    1.8509450000000001    7.2779689999999997
H     -11.4657140000000002   -0.6935130000000000    6.9614849999999997
H      -8.0608339999999998   -4.0813199999999998    8.7028719999999993
H     -11.6724949999999996   -3.3606549999999999    7.9069370000000001
H      -8.9916870000000007   -7.4848309999999998    6.5402009999999997
H      -4.7608350000000002   -6.2744799999999996    9.1346530000000001
H      -6.9137659999999999   -8.9065610000000000    7.5499049999999999
H      -4.6580420000000000  -10.3126669999999994    7.3812689999999996
H      -0.2723050000000000   -8.3995210000000000    9.1146340000000006
H      -2.5845530000000001  -11.3878129999999995    8.8492429999999995
H       1.9424610000000000   -7.4924499999999998    9.7685289999999991
H       7.5958370000000004   -4.4156050000000002    9.1963190000000008
H      11.1617289999999993   -5.0654610000000000    5.1007569999999998
H       7.8023769999999999   -1.9839190000000000    9.3319949999999992
H      10.9401039999999998   -3.2070539999999998    7.0352949999999996
H      11.1400649999999999   -0.6240690000000000    6.9288980000000002
H       7.1694120000000003    2.5822639999999999    8.6583190000000005
H      10.6835090000000008    1.6924260000000000    7.9948360000000003
H      10.7100399999999993    6.6643610000000004    5.9314210000000003
H       6.9433090000000002    5.0548960000000003    8.3968900000000009
H       8.4034230000000001    8.1563239999999997    6.8184269999999998
H       6.1458440000000003    9.6668240000000001    6.5067019999999998
H       1.6492720000000001    7.8341760000000003    8.7663679999999999
H       3.9128059999999998   10.5111249999999998    7.7137330000000004
H      -8.0201019999999996   -4.2198320000000002   -8.2111009999999993
H      -5.0764630000000004   -6.4104080000000003   -8.9662989999999994
H      -8.6079039999999996    2.1527669999999999   -9.3069509999999998
H      -0.1660600000000000   -8.6637199999999996   -8.6048890000000000
H     -11.7378009999999993   -3.5931810000000000   -7.5375350000000001
H      -7.9493980000000004    4.4602310000000003   -8.7082999999999995
H      -6.6931580000000004   -9.1029699999999991   -7.0956279999999996
H     -11.1232900000000008    1.4373119999999999   -6.9526789999999998
H       2.3378329999999998   -8.0326749999999993   -9.9268979999999996
H      -2.3628559999999998  -11.6801619999999993   -8.0570920000000008
H      -0.6366630000000000    8.3160900000000009   -9.0471109999999992
H      -7.4367720000000004    8.6236599999999992   -7.7128639999999997
H      -9.0274629999999991   -7.8945360000000004   -6.3435459999999999
H     -11.4375450000000001   -1.0937260000000000   -6.4643009999999999
H       7.7562800000000003   -5.0052459999999996   -9.0220599999999997
H       1.7828349999999999    7.9545380000000003   -9.4476010000000006
H     -11.0680010000000006    4.0756629999999996   -6.4113879999999996
H      -4.4704959999999998  -10.4976920000000007   -6.8748709999999997
H       4.3016100000000002  -10.1999340000000007   -7.7220310000000003
H      -2.7670499999999998   10.7677639999999997   -7.1989599999999996
H       7.5021240000000002   -2.5716589999999999   -9.0258679999999991
H       6.8073129999999997    4.6001570000000003   -8.6492430000000002
H       6.9663279999999999    2.1197889999999999   -8.7502069999999996
H       2.3888520000000000  -11.3538139999999999   -6.6974600000000004
H      -4.8832089999999999    9.6232790000000001   -7.1343090000000000
H       8.7421539999999993   -8.7424979999999994   -8.6830800000000004
H       4.0430270000000004   10.3409920000000000   -8.0186709999999994
H       6.6026639999999999   -9.4983039999999992   -7.2490420000000002
H     -10.3716200000000001   -6.8104690000000003   -2.0005670000000002
H      -1.2849520000000001   11.8587799999999994   -5.1220410000000003
H      11.0349959999999996   -3.4687060000000001   -7.0038000000000000
H       8.3630720000000007    7.7534000000000001   -7.2786020000000002
H     -11.7334879999999995   -0.9382960000000000   -2.4906210000000000
H      10.5472950000000001    1.2841560000000001   -8.1366139999999998
H     -11.8155180000000009    4.7402300000000004   -2.4802789999999999
H      -5.2474970000000001  -11.0313800000000004   -2.9470369999999999
H       6.1830870000000004    9.2993760000000005   -6.9832039999999997
H      11.4250550000000004   -5.1015689999999996   -4.8593560000000000
H     -11.5048750000000002   -3.7390279999999998   -1.8975450000000000
H      11.0818949999999994   -0.9333300000000000   -6.9282599999999999
H      -7.7892320000000002   -9.4459820000000008   -1.8414759999999999
H     -11.9823249999999994    1.8733120000000001   -2.0658259999999999
H       1.2534080000000001  -11.8575350000000004   -2.1966090000000000
H      10.6427899999999998    6.2907479999999998   -6.3700710000000003
H      -5.7381359999999999    9.6107580000000006   -4.9334889999999998
H      -1.8236540000000001  -11.9283690000000000   -1.9954480000000001
H      -8.2851269999999992    9.5122809999999998   -2.5253559999999999
H       6.5395669999999999   -9.9226019999999995   -2.6457470000000001
H       0.1007940000000000   12.3075180000000000   -2.8191280000000001
H       4.2439130000000000  -10.7950669999999995   -2.2496640000000001
H      -4.7942700000000000   10.5688910000000007   -2.3896570000000001
H       6.1976610000000001   10.1542410000000007   -2.9608949999999998
H      11.4164879999999993   -6.4179060000000003   -2.4633370000000001
H      11.7479899999999997   -0.8315020000000000   -2.5846499999999999
H      10.8511790000000001    5.8043069999999997   -2.1995909999999999
H       7.8262369999999999   -9.3453879999999998   -0.3091670000000000
H       3.3373130000000000   11.7410549999999994   -2.6171869999999999
H      11.7008919999999996   -3.6180680000000001   -1.9321649999999999
H       8.7007569999999994    8.5808269999999993   -2.1929859999999999
H      11.7206259999999993    2.2288690000000000   -2.3210389999999999
