   95
 
H      12.4748420000000007   -0.2537650000000000   -4.3187559999999996
O      14.3235820000000000    0.6001620000000000   -5.9207820000000000
H      14.3343539999999994    0.9961280000000000   -3.3548930000000001
H      14.6970100000000006   -1.2524869999999999   -4.2291309999999998
Si     13.9392519999999998    0.0208800000000000   -4.4173109999999998
O      13.0710169999999994    2.9345050000000001   -5.9510280000000000
O      15.6677769999999992    2.8583580000000000   -6.5659780000000003
Si     14.2320270000000004    2.0446010000000001   -6.6771159999999998
O      12.1424509999999994    5.4291070000000001   -5.6722500000000000
O      12.3928949999999993    3.8360960000000000   -3.5529039999999998
O      14.5746699999999993    4.8235640000000002   -4.7428759999999999
Si     13.0401869999999995    4.2572640000000002   -4.9884630000000003
O      10.7806709999999999    7.7024140000000001   -5.6054750000000002
O      13.2298639999999992    7.6936600000000004   -4.6415649999999999
Si     12.2512570000000007    7.0520759999999996   -5.8033599999999996
O       9.1434940000000005    7.5020670000000003   -3.5209820000000001
O      10.4844229999999996    9.7977340000000002   -3.9326550000000000
Si      9.7425420000000003    8.5215540000000001   -4.6603500000000002
H      11.9805659999999996    4.0290140000000001   -1.0550949999999999
H      10.0307180000000002    3.9801780000000000   -2.5071059999999998
H      11.4489059999999991    5.9699549999999997   -2.4208599999999998
Si     11.4302379999999992    4.4762760000000004   -2.3717969999999999
H       8.2260369999999998    6.1391520000000002   -1.5972540000000000
H       7.2087219999999999    8.3174510000000001   -1.9952930000000000
H       9.4398739999999997    8.1738619999999997   -1.0341830000000001
Si      8.4925610000000002    7.5502370000000001   -2.0090020000000002
H       7.6784749999999997    6.7158980000000001  -12.9041060000000005
H       8.6862239999999993    4.7367610000000004  -11.5928039999999992
H      11.0005159999999993    4.9430680000000002  -11.3397089999999992
Si      8.1359589999999997    6.1198119999999996  -11.6247310000000006
H      11.6178830000000008    5.5586409999999997  -13.7832310000000007
H       9.8623200000000004    6.3160910000000001  -12.5792219999999997
Si     11.4387480000000004    5.9657210000000003  -12.3537099999999995
H       5.8930480000000003    9.0671809999999997   -9.6311579999999992
H      11.6351499999999994    7.4387369999999997  -12.0305250000000008
O       8.7349879999999995    7.2398020000000001  -10.5617669999999997
Si      5.3593789999999997    9.5746289999999998   -8.3343830000000008
O      13.2225479999999997    5.6439729999999999  -11.9276440000000008
H       4.9014790000000001   10.9904200000000003   -8.5006319999999995
H       4.2057440000000001    8.7481299999999997   -7.8749750000000001
Si      9.5777669999999997    7.8470560000000003   -9.3371350000000000
O       6.5190789999999996    9.5254790000000007   -7.1480670000000002
O      10.2091759999999994    9.3383939999999992   -9.7218599999999995
Si     14.5040429999999994   -0.7446920000000000  -10.4101730000000003
Si     13.8004700000000007    4.9971129999999997  -10.5919930000000004
O       8.5979390000000002    8.1042600000000000   -8.0583629999999999
H      15.4163019999999999   -1.2008129999999999   -9.3160080000000001
O      10.8015779999999992    6.8321540000000001   -8.9178470000000001
O      15.4673990000000003    5.2350149999999998  -10.5136009999999995
Si      8.1449090000000002    9.3656480000000002   -7.1204179999999999
O      13.1627539999999996    5.6122259999999997   -9.1961379999999995
O      14.6054259999999996    0.8927260000000000  -10.6175250000000005
O       8.8809939999999994   10.7390200000000000   -7.6301980000000000
O      13.6358329999999999    3.3566609999999999  -10.4362480000000009
Si     12.4251369999999994    7.0120420000000001   -8.8081630000000004
Si     14.5232910000000004    2.2259479999999998   -9.6827590000000008
O      12.9202659999999998    8.2584359999999997   -9.7883329999999997
O      16.0374429999999997    2.8227869999999999   -9.3498040000000007
O       8.4980849999999997    9.0652019999999993   -5.5467300000000002
O      12.8249449999999996    7.4387679999999996   -7.2847020000000002
O      13.8631840000000004    1.7727340000000000   -8.2451200000000000
H      16.0799160000000008    2.9729990000000002   -7.4538110000000000
H      15.2354450000000003    4.3880990000000004   -5.3184800000000001
H      14.0545279999999995    7.1988580000000004   -4.5033399999999997
H      11.4233510000000003    9.6605310000000006   -3.7378520000000002
H      11.1730309999999999    9.3117830000000001   -9.8814200000000003
H      15.7900200000000002    5.8433260000000002  -11.1929169999999996
H       9.4685539999999992   10.5635770000000004   -8.3956680000000006
H      12.8283529999999999    8.0191110000000005  -10.7345869999999994
H      16.1683020000000006    3.6983570000000001   -9.7872819999999994
H      14.9198640000000005   -1.3805069999999999  -11.6957470000000008
H      13.1046479999999992   -1.1530499999999999  -10.0841790000000007
O       8.8874010000000006    4.7969480000000004   -5.0652569999999999
C       8.1645430000000001    5.0034070000000002   -6.1998879999999996
C       6.9412070000000003    5.6975850000000001   -6.1584519999999996
C       6.2075449999999996    5.9285280000000000   -7.3169630000000003
C       6.7113839999999998    5.4820320000000002   -8.5463559999999994
C       5.9309229999999999    5.8328020000000000   -9.7738329999999998
O       4.7454060000000000    6.1313659999999999   -9.7152480000000008
O       6.5686150000000003    5.8022450000000001  -10.9592399999999994
C       7.9115710000000004    4.7598050000000001   -8.5957620000000006
C       8.6422749999999997    4.5107369999999998   -7.4299819999999999
O       9.8187180000000005    3.8278639999999999   -7.3705400000000001
C      10.3742090000000005    3.3690889999999998   -8.6051970000000004
O       6.5847049999999996    6.1010559999999998   -4.8886710000000004
C       5.4827070000000004    7.0006310000000003   -4.7698689999999999
H       8.4750910000000008    5.3487669999999996   -4.3733529999999998
H       5.2596489999999996    6.4615020000000003   -7.3073860000000002
H       8.2809989999999996    4.3909050000000001   -9.5502570000000002
H       9.7316459999999996    2.6034570000000001   -9.0720449999999992
H      10.5266970000000004    4.1962560000000000   -9.3125610000000005
H      11.3421009999999995    2.9302820000000001   -8.3471489999999999
H       5.6612809999999998    7.9247209999999999   -5.3386550000000002
H       4.5450150000000002    6.5302550000000004   -5.1077209999999997
H       5.4054050000000000    7.2347739999999998   -3.7017950000000002
