  105
 
O       6.8420589999999999    9.9080399999999997   -5.7251960000000004
O       6.4592260000000001    7.6296819999999999   -4.3533920000000004
O       6.1695539999999998    9.9922670000000000   -3.1075819999999998
O       4.3610249999999997    9.3116859999999999   -4.8887710000000002
Si      5.9391509999999998    9.2259170000000008   -4.5140140000000004
O      11.3448259999999994    0.5668890000000000  -10.3649989999999992
O      10.3996580000000005    1.8992000000000000   -8.2008449999999993
O       8.8290970000000009    0.1855330000000000   -9.5686859999999996
O      10.8455420000000000   -0.6964220000000000   -8.0254250000000003
Si     10.3413470000000007    0.5055180000000000   -9.0634940000000004
O      10.3680050000000001    3.9490229999999999   -6.4577410000000004
O      11.8289670000000005    1.8639559999999999   -5.8759610000000002
Si     11.2629230000000007    2.7609059999999999   -7.1367139999999996
O      11.5698209999999992    6.2964000000000002   -6.0063199999999997
O       9.7258610000000001    5.4287609999999997   -4.3097810000000001
O      12.1783249999999992    4.2427089999999996   -4.5031499999999998
Si     10.9217379999999995    4.9898970000000000   -5.3132060000000001
O      12.0133320000000001    8.8005110000000002   -5.2173220000000002
O      13.9943329999999992    7.3523420000000002   -6.2845599999999999
Si     12.3805879999999995    7.6644790000000000   -6.3367410000000000
O       9.4562000000000008    9.3478010000000005   -5.4772670000000003
O      10.9498020000000000   10.5804700000000000   -3.5897690000000000
O      11.1972030000000000   11.2105239999999995   -6.1865930000000002
Si     10.8875060000000001   10.0126320000000000   -5.0964830000000001
O       8.5606570000000008   10.7393889999999992   -7.6074190000000002
Si      8.2082890000000006    9.5664800000000003   -6.5262200000000004
O       9.8601419999999997    5.2438520000000004   -1.5931230000000001
O       8.4827270000000006    7.1935609999999999   -2.7072349999999998
O      11.1901440000000001    7.1602870000000003   -2.8069540000000002
Si      9.7989320000000006    6.2572859999999997   -2.8750480000000000
O       8.7706000000000000    9.8492669999999993   -2.1575280000000001
O      10.2510460000000005   11.9900719999999996   -1.5197940000000001
O      11.2826039999999992    9.5369050000000009   -1.1348890000000000
Si     10.3010350000000006   10.4521180000000005   -2.0719820000000002
O       9.5484989999999996    2.2567560000000002  -11.6148699999999998
O      11.6945119999999996    3.8320829999999999  -10.9668130000000001
O      12.8918479999999995    5.5300810000000000  -12.6719799999999996
Si     10.1298759999999994    3.7896899999999998  -11.5491969999999995
O      15.3071280000000005    6.3650440000000001  -13.6292559999999998
O      10.2010319999999997    4.4297659999999999  -13.0484550000000006
Si     14.2203370000000007    6.4380930000000003  -12.4070450000000001
O       3.9563169999999999    4.6614969999999998   -7.2962319999999998
O      13.6382750000000001    7.9969070000000002  -12.2289670000000008
O       9.1149520000000006    4.6027480000000001  -10.5569319999999998
Si      4.2032650000000000    6.2745240000000004   -7.4453839999999998
O      15.0395289999999999    5.9806720000000002  -11.0614249999999998
O       3.7287319999999999    6.7675630000000000   -8.9301049999999993
O       3.3993329999999999    6.9747890000000003   -6.1824370000000002
Si      9.0148030000000006    6.0614010000000000   -9.8430260000000001
O       5.7702549999999997    6.7352809999999996   -7.1684340000000004
O       8.7309000000000001    7.2949279999999996  -10.9022159999999992
Si     14.6069460000000007    0.7274160000000000   -8.1074929999999998
Si     14.5906939999999992    6.0406409999999999   -9.4919700000000002
O       7.7440160000000002    5.9939000000000000   -8.8187560000000005
O      13.4015920000000008    0.0664150000000000   -7.2042529999999996
O      10.3949890000000007    6.3569979999999999   -9.0112170000000003
O      15.4656570000000002    7.1903910000000000   -8.7475050000000003
Si      6.9588229999999998    7.2746709999999997   -8.1642569999999992
O      12.9804919999999999    6.3178749999999999   -9.4134220000000006
O      14.8627680000000009    2.2395710000000002   -7.5383760000000004
O       6.2085790000000003    8.1631119999999999   -9.3383859999999999
O      14.8051770000000005    4.5390240000000004   -8.8481980000000000
Si     11.7051130000000008    7.3078409999999998   -9.1926699999999997
Si     14.1151429999999998    3.6973430000000000   -7.6444989999999997
O      11.4711060000000007    8.2865450000000003  -10.4855070000000001
O      14.3047000000000004    4.5446970000000002   -6.2483839999999997
O       8.0333530000000000    8.1301009999999998   -7.3044200000000004
O      11.9363860000000006    8.1836160000000007   -7.8234250000000003
O      12.5194860000000006    3.4278209999999998   -7.9916539999999996
H       3.9575890000000000    8.5377220000000005   -5.3296890000000001
H      12.4209499999999995    1.1190800000000001   -6.1378240000000002
H      12.0951670000000000    3.2652619999999999   -4.5136180000000001
H      14.2098759999999995    6.3993750000000000   -6.1485260000000004
H      11.6603949999999994   11.9902970000000000   -5.8502080000000003
H       9.4149460000000005   11.1813699999999994   -7.4643009999999999
H      11.4803800000000003    7.6539370000000000   -3.5972689999999998
H      11.4132569999999998    8.6249009999999995   -1.4598560000000000
H      10.9316320000000005    5.0493300000000003  -13.2224070000000005
H      14.3075609999999998    8.6967169999999996  -12.2603919999999995
H       4.3120890000000003    7.4347149999999997   -9.3417460000000005
H       9.5239370000000001    7.8389280000000001  -11.0791730000000008
H      12.6724429999999995   -0.4643300000000000   -7.5974979999999999
H      15.1292749999999998    7.4492130000000003   -7.8628859999999996
H       6.7639360000000002    8.3169699999999995  -10.1232030000000002
H      12.2033839999999998    8.2961620000000007  -11.1469869999999993
H      13.6581650000000003    4.3661599999999998   -5.5180509999999998
O      16.0114869999999989   -0.1035050000000000   -8.0545790000000004
H      16.6878099999999989    0.1959210000000000   -7.4319249999999997
O      14.0559279999999998    0.7023720000000000   -9.6728450000000006
H      14.7203800000000005    0.8258180000000001  -10.3668669999999992
H      12.3093229999999991    0.6688420000000000  -10.2051520000000000
H      10.5094080000000005   -1.5840320000000001   -8.2179110000000009
H       8.5030429999999999    0.8089320000000000  -10.2432110000000005
H      14.9550099999999997    6.2976840000000003  -14.5267990000000005
H       6.3109120000000001    7.0754690000000000   -5.1415410000000001
H       7.0904280000000002   10.1359919999999999   -2.7948100000000000
H      10.2705070000000003    1.5948629999999999  -11.6078290000000006
H       4.0858759999999998    4.1332709999999997   -8.0961219999999994
H       2.5457519999999998    6.5895289999999997   -5.9403420000000002
H      11.8536809999999999    3.7849970000000002  -10.0064639999999994
H      12.6315150000000003    4.8806830000000003  -11.9674460000000007
H      10.7202710000000003    4.8421490000000000   -1.4095759999999999
H       7.7350199999999996    7.2327599999999999   -3.3737240000000002
H       8.6916390000000003    8.8632170000000006   -2.2346550000000001
H       9.7787620000000004   12.1311049999999998   -0.6886139999999999
