   32
 
Si      4.2103400000000004    0.0283770000000000   -0.3861650000000000
O       4.5677519999999996    1.5263800000000001   -1.0470539999999999
O       5.2991489999999999   -0.1314720000000000    0.8255850000000000
O       4.3616140000000003   -1.1696050000000000   -1.5108450000000000
C       2.4722350000000000   -0.0552400000000000    0.2775220000000000
C       1.3551949999999999    0.1996610000000000   -0.7483570000000000
H       2.4134940000000000    0.6781100000000000    1.0998010000000000
H       2.3477429999999999   -1.0465329999999999    0.7447070000000000
C      -0.0249680000000000    0.1398150000000000   -0.1071080000000000
H       1.4002209999999999   -0.5412709999999999   -1.5608210000000000
H       1.4745889999999999    1.1911210000000001   -1.2148070000000000
O      -1.0111619999999999    0.3726420000000000   -1.1049009999999999
C      -2.3317030000000001    0.3300890000000000   -0.5846630000000000
C      -3.3057910000000001    0.5508480000000000   -1.7072030000000000
O      -3.6290870000000002    1.9146440000000000   -2.0399539999999998
C      -4.6483590000000001    1.0937190000000001   -1.4486930000000000
H      -0.1085850000000000    0.9000190000000000    0.6970030000000000
H      -0.1863010000000000   -0.8523750000000000    0.3635250000000000
H      -2.5283009999999999   -0.6572050000000000   -0.1154490000000000
H      -2.4759699999999998    1.1092400000000000    0.1901520000000000
H      -5.4763099999999998    0.8213190000000000   -2.1103619999999998
H      -4.9324209999999997    1.3685920000000000   -0.4269370000000000
H      -3.1633309999999999   -0.0970570000000000   -2.5800049999999999
Si      6.4711689999999997    0.7430890000000000    1.5748530000000001
O       6.3313230000000003    0.7123010000000000    3.2149239999999999
O       6.3908290000000001    2.3151809999999999    1.0906929999999999
O       7.8693679999999997   -0.0314970000000000    1.1928460000000001
H       8.6446199999999997    0.2109790000000000    1.7168410000000001
H       5.7791180000000004    1.4086689999999999    3.5954910000000000
H       5.9299759999999999    2.4374259999999999    0.2406230000000000
H       5.2542410000000004   -1.3729520000000000   -1.8238449999999999
H       4.1478000000000002    1.7464550000000001   -1.8893970000000000
