   29
 
C       1.7466180000000000   -0.1824200000000000   -0.0961970000000000
C       2.6101770000000002   -1.2936970000000001   -0.0815430000000000
C       3.9975610000000001   -1.1153489999999999   -0.0725230000000000
O       4.8680060000000003   -2.1762540000000001   -0.0569580000000000
C       4.5567820000000001    0.1630000000000000   -0.0791470000000000
C       3.6965620000000001    1.2668919999999999   -0.0960590000000000
O       4.2867270000000000    2.5061920000000000   -0.1049250000000000
C       2.3105090000000001    1.1082000000000001   -0.1049620000000000
C       0.3081590000000000   -0.4283380000000000   -0.1002300000000000
C      -0.6765840000000000    0.4996980000000000   -0.0783070000000000
C      -2.1136780000000002    0.2585910000000000   -0.0788900000000000
C      -2.9940869999999999    1.3583790000000000    0.0032280000000000
C      -4.3754359999999997    1.1994689999999999    0.0161180000000000
C      -4.9208999999999996   -0.0873440000000000   -0.0556990000000000
O      -6.2862309999999999   -0.2037660000000000   -0.0373790000000000
C      -4.0703009999999997   -1.1998089999999999   -0.1442330000000000
C      -2.6921680000000001   -1.0261020000000001   -0.1554580000000000
H       2.1889120000000002   -2.3023389999999999   -0.0752200000000000
H       4.3516399999999997   -2.9980220000000002   -0.0531080000000000
H       5.6367310000000002    0.2998600000000000   -0.0728710000000000
H       3.5877870000000001    3.1795900000000001   -0.1155750000000000
H       1.6724509999999999    1.9940100000000001   -0.1220250000000000
H       0.0345210000000000   -1.4876689999999999   -0.1169080000000000
H      -0.4000790000000000    1.5584300000000000   -0.0485150000000000
H      -2.5749089999999999    2.3652549999999999    0.0605910000000000
H      -5.0438299999999998    2.0579369999999999    0.0817450000000000
H      -6.5212729999999999   -1.1439760000000001   -0.0948110000000000
H      -4.4951990000000004   -2.2052800000000001   -0.2055280000000000
H      -2.0565720000000001   -1.9092359999999999   -0.2285100000000000
