   18
 
C       2.6029179999999998    0.1272920000000000    0.0403080000000000
C       1.1190929999999999    0.0333840000000000   -0.0340970000000000
C       0.4065680000000000    1.2404750000000000   -0.0594190000000000
C      -0.9842970000000000    1.2044999999999999   -0.1373720000000000
O      -1.7009030000000001    2.3654579999999998   -0.1550020000000000
C      -1.6413530000000001   -0.0325260000000000   -0.2095750000000000
O      -3.0414029999999999   -0.0690540000000000   -0.2557810000000000
C      -0.9256910000000000   -1.2359199999999999   -0.1422830000000000
O      -1.5863710000000000   -2.4297339999999998   -0.1637550000000000
C       0.4670360000000000   -1.2083330000000001   -0.0645000000000000
O       3.2369629999999998    1.1653199999999999    0.0865380000000000
O       3.2144260000000000   -1.0953740000000001    0.0495030000000000
H       0.9369960000000001    2.1899400000000000   -0.0141720000000000
H      -2.6428530000000001    2.1220370000000002   -0.0852750000000000
H      -3.3316409999999999   -0.0548000000000000   -1.1848390000000000
H      -2.5393420000000000   -2.2293159999999999   -0.1047360000000000
H       1.0239910000000001   -2.1414629999999999   -0.0240370000000000
H       4.1700640000000000   -0.9024870000000000    0.0994940000000000
