   92
 
H      12.0088570000000008   -0.9329769999999999   -5.7754890000000003
O      14.2672559999999997    0.3515460000000000   -5.8720999999999997
H      13.3449410000000004   -0.8094650000000000   -3.7397840000000002
H      14.1039639999999995   -2.1618560000000002   -5.6189739999999997
Si     13.3997829999999993   -0.9019800000000000   -5.2313489999999998
O      12.7302210000000002    2.3556089999999998   -5.1170410000000004
O      15.3796140000000001    2.6142880000000002   -4.9308399999999999
Si     14.1558399999999995    1.9890810000000001   -5.8182580000000002
O      11.6029219999999995    4.7723769999999996   -5.1933309999999997
O      11.0400829999999992    3.1447520000000000   -3.2242570000000002
O      13.4971219999999992    4.1771580000000004   -3.2961749999999999
Si     12.2361240000000002    3.6578780000000002   -4.2203860000000004
O      10.6293319999999998    7.0645259999999999   -6.0449020000000004
O      13.3113220000000005    6.8087980000000003   -5.8975710000000001
Si     11.9562899999999992    6.0542340000000001   -6.1805560000000002
O      10.1448619999999998    8.4686240000000002   -3.8126120000000001
O      12.2289069999999995    9.1269709999999993   -5.4436770000000001
Si     10.7043459999999993    8.5587949999999999   -5.3629429999999996
H      11.5872779999999995    2.0923090000000002   -0.9200340000000000
H       9.2956990000000008    2.7066590000000001   -1.4371600000000000
H      10.9439200000000003    4.4347240000000001   -0.9631560000000000
Si     10.7259720000000005    3.1044299999999998   -1.6112000000000000
H       9.3837620000000008    6.1564750000000004   -2.9052870000000000
H       9.9357570000000006    7.9311499999999997   -1.3402769999999999
H      11.7074680000000004    6.7919419999999997   -2.5660919999999998
Si     10.3059130000000003    7.3062750000000003   -2.6493669999999998
H       6.1069690000000003    6.6311999999999998  -12.3339879999999997
H       7.8558579999999996    5.0610299999999997  -11.6763820000000003
H      10.0815439999999992    3.1594660000000001  -12.8531119999999994
Si      7.5538590000000001    6.4907120000000003  -11.9901769999999992
H      11.7003109999999992    3.0584310000000001  -14.6709680000000002
H       8.3791550000000008    6.9133089999999999  -13.1647820000000007
Si     11.3692630000000001    3.7143750000000000  -13.3698280000000000
H       6.7258870000000002   11.2349060000000005   -9.7478899999999999
H      11.2146080000000001    5.1862060000000003  -13.5853240000000000
O       7.8455490000000001    7.4626299999999999  -10.6855259999999994
Si      6.4841240000000004   11.2658220000000000   -8.2702179999999998
O      12.6139880000000009    3.3841350000000001  -12.3294259999999998
H       6.0196899999999998   12.6339930000000003   -7.8853020000000003
H       5.4073339999999996   10.2817559999999997   -7.9403560000000004
Si      9.1472560000000005    7.8011739999999996   -9.7570840000000008
O       7.8571720000000003   10.9410570000000007   -7.4223770000000000
O      10.2051149999999993    8.7589939999999995  -10.6061490000000003
Si     14.6160549999999994   -0.7208680000000000   -9.1181029999999996
Si     13.0413530000000009    3.9789159999999999  -10.8683580000000006
O       8.6113409999999995    8.6154980000000005   -8.4509150000000002
H      15.5111889999999999   -1.5304810000000000   -8.2407310000000003
O       9.8804789999999993    6.3959050000000000   -9.3477770000000007
O      14.3955939999999991    4.9000899999999996  -11.0700979999999998
Si      9.1437799999999996    9.9388039999999993   -7.6132799999999996
O      11.7697690000000001    4.8038249999999998  -10.2781439999999993
O      15.1552410000000002    0.8386190000000000   -9.1525409999999994
O      10.3307230000000008   10.6813249999999993   -8.4792229999999993
O      13.4096829999999994    2.7054250000000000   -9.9006030000000003
Si     11.4548740000000002    5.9778549999999999   -9.1700230000000005
Si     14.6528630000000000    2.3677920000000001   -8.8894690000000001
O      12.2787299999999995    7.3541590000000001   -9.5862350000000003
O      15.8964990000000004    3.4169570000000000   -9.1987629999999996
O       9.6492629999999995    9.5671370000000007   -6.1241870000000000
O      11.8271610000000003    5.3965569999999996   -7.7186550000000000
O      14.2051739999999995    2.5677989999999999   -7.3458300000000003
H      15.9674189999999996    3.2965309999999999   -5.3514900000000001
H      14.3472709999999992    3.8054239999999999   -3.6023480000000001
H      12.8177310000000002    8.2829719999999991   -5.5777619999999999
H      11.1251879999999996    8.4250469999999993  -10.4697809999999993
H      14.5624669999999998    5.6470630000000002  -10.4390610000000006
H      10.4067670000000003   10.2898429999999994   -9.3741690000000002
H      13.2630579999999991    7.3266619999999998   -9.4599869999999999
H      15.7369740000000000    3.8820910000000000  -10.0493760000000005
H      14.6677470000000003   -1.2729509999999999  -10.5073980000000002
H      13.2100860000000004   -0.8064110000000000   -8.6168340000000008
N      15.9941820000000003    5.8618410000000001   -7.5650399999999998
C      16.4778330000000004    5.7008310000000000   -6.2736120000000000
O      16.8835279999999983    4.5988910000000001   -5.8754799999999996
N      16.5187820000000016    6.8345849999999997   -5.4878179999999999
C      16.8453809999999997    6.7101810000000004   -4.0674479999999997
C      15.9994580000000006    8.0084490000000006   -5.9774929999999999
N      15.8754700000000000    9.1628220000000002   -5.2812849999999996
C      15.2091519999999996    9.9591499999999993   -6.1192169999999999
N      14.9306219999999996    9.3895859999999995   -7.3197700000000001
C      14.0366859999999996    9.9434450000000005   -8.3305209999999992
C      15.4523849999999996    8.1048690000000008   -7.2571360000000000
C      15.3891290000000005    6.9813830000000001   -8.1182330000000000
O      14.8841529999999995    6.9252690000000001   -9.2744479999999996
H      15.9700480000000002    4.9839950000000002   -8.1115680000000001
H      17.5460519999999995    5.8798440000000003   -3.9467180000000002
H      17.2855869999999996    7.6528090000000004   -3.7288230000000002
H      15.9277139999999999    6.5105740000000001   -3.4952329999999998
H      14.8799600000000005   10.9671319999999994   -5.8841250000000000
H      14.4482420000000005    9.7718570000000007   -9.3315219999999997
H      13.0440129999999996    9.4838850000000008   -8.2451609999999995
H      13.9383529999999993   11.0193630000000002   -8.1514489999999995
