   92
 
H      12.0214829999999999   -1.1839409999999999   -5.8120890000000003
O      14.1260340000000006    0.3351730000000000   -5.8142050000000003
H      13.1241059999999994   -0.7535590000000000   -3.6861220000000001
H      14.2068060000000003   -2.1572909999999998   -5.3565980000000000
Si     13.3437450000000002   -0.9553610000000000   -5.1533759999999997
O      12.4785679999999992    2.3179379999999998   -5.2286159999999997
O      15.0833080000000006    2.7203949999999999   -5.0460890000000003
Si     13.9359380000000002    1.9588540000000001   -5.9279919999999997
O      11.2719489999999993    4.7310090000000002   -5.2660380000000000
O      10.9568779999999997    3.1374029999999999   -3.2013630000000002
O      13.3659400000000002    4.3017890000000003   -3.6489660000000002
Si     12.0224060000000001    3.6101529999999999   -4.3404319999999998
O      10.7163789999999999    7.2451889999999999   -5.9924580000000001
O      13.1869359999999993    6.5978009999999996   -5.2614700000000001
Si     11.8388580000000001    6.0596719999999999   -6.0439980000000002
O      10.0004000000000008    8.4224619999999994   -3.7055650000000000
O      12.1046289999999992    9.4042499999999993   -5.1102559999999997
Si     10.6354430000000004    8.6813219999999998   -5.1961449999999996
H      12.0307460000000006    2.3586040000000001   -0.9714260000000000
H       9.6110860000000002    2.2373470000000002   -1.2507150000000000
H      10.6979190000000006    4.3930540000000002   -0.9497230000000000
Si     10.8345719999999996    3.0344270000000000   -1.5614090000000000
H       9.1707760000000000    6.0799669999999999   -2.9646059999999999
H       9.6693820000000006    7.7641859999999996   -1.2716780000000001
H      11.4798799999999996    6.6734090000000004   -2.4860009999999999
Si     10.0837090000000007    7.2016289999999996   -2.5919189999999999
H       6.2104239999999997    6.4756989999999996  -12.0209460000000004
H       8.1074020000000004    5.0240640000000001  -11.5084909999999994
H       9.9497660000000003    3.2726549999999999  -12.9193320000000007
Si      7.6893909999999996    6.4238239999999998  -11.8171739999999996
H      11.5735690000000009    3.7938869999999998  -14.6482139999999994
H       8.3723550000000007    6.8788380000000000  -13.0672200000000007
Si     11.2154799999999994    4.0142080000000000  -13.2130500000000008
H       6.6739439999999997   10.9652030000000007   -9.7343670000000007
H      10.9754380000000005    5.4750170000000002  -12.9902789999999992
O       8.0442370000000007    7.4372939999999996  -10.5595269999999992
Si      6.4470700000000001   11.1418370000000007   -8.2658020000000008
O      12.4439940000000000    3.4416340000000001  -12.2750439999999994
H       5.9588169999999998   12.5307960000000005   -8.0088430000000006
H       5.4039299999999999   10.1701400000000000   -7.8151370000000000
Si      9.3313349999999993    7.8107100000000003   -9.6306879999999992
O       7.8408870000000004   10.9324619999999992   -7.4095659999999999
O      10.3681610000000006    8.8179839999999992  -10.4417589999999993
Si     14.7409920000000003   -0.7291360000000000   -9.1158439999999992
Si     13.1595499999999994    3.9879479999999998  -10.9030380000000005
O       8.7478599999999993    8.6030069999999998   -8.3240900000000000
H      15.5702970000000001   -1.5509090000000001   -8.1816999999999993
O      10.1104730000000007    6.4351820000000002   -9.2053030000000007
O      14.3318049999999992    5.0275270000000001  -11.3305790000000002
Si      9.1699760000000001    9.9835499999999993   -7.5294400000000001
O      11.9662629999999996    4.7057789999999997  -10.0121909999999996
O      15.2957879999999999    0.8163180000000000   -9.1251519999999999
O      10.3738340000000004   10.7458829999999992   -8.3422129999999992
O      13.6941340000000000    2.6853690000000001  -10.0822660000000006
Si     11.7030569999999994    6.0375690000000004   -9.1296979999999994
Si     14.7673389999999998    2.3510230000000001   -8.8849269999999994
O      12.4960740000000001    7.3596409999999999   -9.7011920000000007
O      16.0522440000000017    3.3197510000000001   -8.8563880000000008
O       9.6202480000000001    9.6733799999999999   -5.9931770000000002
O      12.1466159999999999    5.7003779999999997   -7.5938410000000003
O      13.8968539999999994    2.4033540000000002   -7.4824500000000000
H      15.7226140000000001    3.3961030000000001   -5.4630200000000002
H      14.1718790000000006    3.7966479999999998   -3.9481180000000000
H      13.4770559999999993    5.9569000000000001   -4.5732920000000004
H      12.8407839999999993    8.7864210000000007   -4.9496460000000004
H      11.2880699999999994    8.4489439999999991  -10.4008369999999992
H      14.7505980000000001    5.5768149999999999  -10.6189219999999995
H      10.5235710000000005   10.3257429999999992   -9.2169930000000004
H      13.5114429999999999    7.2830459999999997   -9.6648189999999996
H      14.8604529999999997   -1.3085770000000001  -10.4907590000000006
H      13.3090170000000008   -0.8112670000000000   -8.6862490000000001
N      15.8561449999999997    5.7441329999999997   -7.6164059999999996
C      16.2681229999999992    5.6874359999999999   -6.3204240000000000
O      16.6260140000000014    4.6181369999999999   -5.7653309999999998
N      16.3198630000000016    6.8569240000000002   -5.5432350000000001
C      16.7266249999999985    6.7838880000000001   -4.1453709999999999
C      15.8339040000000004    8.0164299999999997   -6.0824569999999998
N      15.7103439999999992    9.2211970000000001   -5.4571410000000000
C      15.1610220000000009    9.9984129999999993   -6.3922499999999998
N      14.9364279999999994    9.3630800000000001   -7.5726699999999996
C      14.2891980000000007    9.9468040000000002   -8.7399819999999995
C      15.3679269999999999    8.0494719999999997   -7.3920399999999997
C      15.3924590000000006    6.8721930000000002   -8.2111920000000005
O      14.9976900000000004    6.8662000000000001   -9.4303410000000003
H      15.9789739999999991    4.2271580000000002   -8.4120120000000007
H      17.6678630000000005    6.2290440000000000   -4.0661110000000003
H      16.8437839999999994    7.8073360000000003   -3.7750170000000001
H      15.9684469999999994    6.2615699999999999   -3.5430779999999999
H      14.8841880000000000   11.0395420000000009   -6.2487480000000000
H      14.8629330000000000    9.7111479999999997   -9.6438190000000006
H      13.2699999999999996    9.5562699999999996   -8.8482810000000001
H      14.2445350000000008   11.0328189999999999   -8.6018019999999993
