   92
 
H      11.9345900000000000   -0.9171290000000000   -6.1397019999999998
O      14.2337480000000003    0.2898520000000000   -6.1393370000000003
H      13.2065380000000001   -0.8722490000000001   -4.0587629999999999
H      13.9806950000000008   -2.2204660000000001   -5.9365329999999998
Si     13.3063170000000000   -0.9446550000000000   -5.5486269999999998
O      12.8764339999999997    2.4105539999999999   -5.3223000000000003
O      15.5505329999999997    2.4017320000000000   -5.1539690000000000
Si     14.2580480000000005    1.9262100000000000   -6.0396340000000004
O      11.6356219999999997    4.7557419999999997   -4.8674999999999997
O      11.5302799999999994    2.8202889999999998   -3.1005850000000001
O      13.8754700000000000    4.0989360000000001   -3.4877680000000000
Si     12.4925850000000001    3.5595990000000000   -4.2006550000000002
O      10.4546630000000000    6.9955650000000000   -5.7060300000000002
O      13.1265239999999999    6.8539500000000002   -5.7547269999999999
Si     11.7625539999999997    6.0192530000000000   -5.9180070000000002
O       9.9728159999999999    8.7907270000000004   -3.7944490000000002
O      12.1203900000000004    9.0786709999999999   -5.4846149999999998
Si     10.6040109999999999    8.6220909999999993   -5.3220789999999996
H      11.7047039999999996    2.5406460000000002   -0.5486340000000000
H       9.5149509999999999    2.4478890000000000   -1.5892470000000001
H      10.6763049999999993    4.5836569999999996   -1.3830229999999999
Si     10.8494019999999995    3.1207729999999998   -1.6324790000000000
H       9.0422919999999998    6.8569810000000002   -2.3404950000000002
H      10.0807190000000002    8.7528880000000004   -1.2472650000000001
H      11.4537119999999994    7.1274490000000004   -2.4281820000000001
Si     10.1486900000000002    7.8612840000000004   -2.4498650000000000
H       5.9004329999999996    5.8308559999999998  -11.8831670000000003
H       7.8378249999999996    4.5120170000000002  -11.1963139999999992
H       9.9055970000000002    3.3550040000000001  -12.9256639999999994
Si      7.3849989999999996    5.8369650000000002  -11.7169810000000005
H      11.5184899999999999    3.9974460000000001  -14.6319710000000001
H       8.0193209999999997    6.0746260000000003  -13.0518160000000005
Si     11.1472840000000009    4.1420750000000002  -13.1916100000000007
H       7.3349770000000003   11.4062959999999993  -10.1675140000000006
H      10.8930030000000002    5.5828600000000002  -12.8832939999999994
O       7.7635810000000003    7.0542239999999996  -10.6679949999999995
Si      7.0504860000000003   11.8116760000000003   -8.7530870000000007
O      12.4040049999999997    3.5473040000000000  -12.2885840000000002
H       7.4746930000000003   13.2358759999999993   -8.5725160000000002
H       5.5767400000000000   11.7240629999999992   -8.5154340000000008
Si      9.0525629999999992    7.5060739999999999   -9.7722219999999993
O       7.8229319999999998   10.8438809999999997   -7.6703150000000004
O      10.1091250000000006    8.3736069999999998  -10.7142990000000005
Si     14.9784079999999999   -0.7451840000000000   -9.2917210000000008
Si     13.0051640000000006    3.9637980000000002  -10.8278140000000000
O       8.5054230000000004    8.4394120000000008   -8.5576899999999991
H      15.8170240000000000   -1.4717830000000001   -8.2947679999999995
O       9.7963210000000007    6.1559850000000003   -9.2092500000000008
O      14.2739600000000006    4.9896560000000001  -11.0611660000000001
Si      9.0719600000000007    9.7773020000000006   -7.7665879999999996
O      11.8043359999999993    4.5908490000000004   -9.9327240000000003
O      15.4176579999999994    0.8468200000000000   -9.3220700000000001
O      10.2970120000000005   10.4358459999999997   -8.6577710000000003
O      13.5711239999999993    2.5920809999999999  -10.1204339999999995
Si     11.3714379999999995    5.8108269999999997   -8.9271820000000002
Si     14.8183389999999999    2.3426330000000002   -9.0876450000000002
O      12.1631199999999993    7.1975780000000000   -9.3569279999999999
O      15.9953959999999995    3.4693710000000002   -9.3857879999999998
O       9.5135339999999999    9.4495149999999999   -6.2573090000000002
O      11.6457339999999991    5.3106619999999998   -7.4202589999999997
O      14.3365100000000005    2.5425849999999999   -7.5506200000000003
H      16.1265569999999983    3.1207419999999999   -5.5298309999999997
H      14.6528899999999993    3.5818789999999998   -3.7803700000000000
H      12.7746300000000002    7.9311189999999998   -5.5990140000000004
H      11.0309830000000009    8.0976230000000005  -10.4987750000000002
H      14.4539690000000007    5.7006829999999997  -10.3936430000000009
H      10.3658420000000007   10.0081520000000008   -9.5342479999999998
H      13.1505100000000006    7.2116800000000003   -9.2628470000000007
H      15.7776440000000004    3.9737410000000000  -10.1990669999999994
H      15.2219929999999994   -1.3240670000000001  -10.6490259999999992
H      13.5323650000000004   -0.9081770000000000   -8.9495629999999995
N      15.9909470000000002    5.8039090000000000   -7.5682820000000000
C      16.5122450000000001    5.5894269999999997   -6.2992540000000004
O      16.9853279999999991    4.4882280000000003   -5.9776160000000003
N      16.4942899999999995    6.6679719999999998   -5.4399670000000002
C      16.8587339999999983    6.4711670000000003   -4.0357770000000004
C      15.9235620000000004    7.8491580000000001   -5.8525280000000004
N      15.7453970000000005    8.9452900000000000   -5.0826989999999999
C      15.0418930000000000    9.7646099999999993   -5.8695240000000002
N      14.7983279999999997    9.2700390000000006   -7.1076930000000003
C      13.8797789999999992    9.8524250000000002   -8.0819510000000001
C      15.3744160000000001    8.0065349999999995   -7.1278680000000003
C      15.3409040000000001    6.9353179999999996   -8.0505639999999996
O      14.8076480000000004    6.9192299999999998   -9.1955310000000008
H      16.0094500000000011    4.9672400000000003   -8.1755449999999996
H      17.6790279999999989    5.7494690000000004   -3.9855580000000002
H      17.1562629999999992    7.4395569999999998   -3.6237100000000000
H      15.9909970000000001    6.0886079999999998   -3.4793470000000002
H      14.6548350000000003   10.7316579999999995   -5.5638940000000003
H      14.2833349999999992    9.7335309999999993   -9.0936710000000005
H      12.8956359999999997    9.3762360000000005   -7.9932670000000003
H      13.7627539999999993   10.9161999999999999   -7.8505330000000004
