   92
 
H      12.4566280000000003   -0.3324960000000000   -3.7158899999999999
O      14.2964500000000001    0.8280880000000000   -5.1319400000000002
H      14.6519469999999998    0.0234490000000000   -2.7131010000000000
H      14.3787350000000007   -1.6287620000000000   -4.4845949999999997
Si     13.9267090000000007   -0.2996620000000000   -3.9791780000000001
O      13.1835989999999992    3.1419660000000000   -4.4881919999999997
O      15.0328420000000005    3.0974059999999999   -6.3996760000000004
Si     13.7803410000000000    2.2524039999999999   -5.7284199999999998
O      11.6934660000000008    5.2726720000000000   -5.1267430000000003
O      12.8944519999999994    5.1420279999999998   -2.7572719999999999
O      14.3672930000000001    5.5111999999999997   -4.9755739999999999
Si     13.0333000000000006    4.7656729999999996   -4.3319869999999998
O      10.0957019999999993    7.3064609999999997   -5.8207680000000002
O      12.6971650000000000    7.5533440000000001   -6.1639200000000001
Si     11.4395229999999994    6.4748510000000001   -6.2125510000000004
O       9.6973280000000006    8.6526449999999997   -3.5931099999999998
O      10.9959209999999992    9.8503220000000002   -5.6534339999999998
Si      9.8063079999999996    8.8079129999999992   -5.2192990000000004
H      12.4787199999999991    6.1215250000000001   -0.4563300000000000
H      10.5705209999999994    5.9924369999999998   -1.9806250000000001
H      12.3361040000000006    7.6368460000000002   -2.3641899999999998
Si     12.0337549999999993    6.2584679999999997   -1.8743230000000000
H       9.8281150000000004    8.7271699999999992   -1.0614070000000000
H       7.9254509999999998    9.8210619999999995   -2.1167810000000000
H      10.1420549999999992   10.8282589999999992   -2.2519740000000001
Si      9.3879149999999996    9.5369480000000006   -2.2391329999999998
H       6.6083619999999996    7.1767820000000002  -12.4990810000000003
H       8.8748810000000002    6.3200060000000002  -12.1000060000000005
H      10.0456640000000004    4.5764339999999999  -13.7999729999999996
Si      8.0364839999999997    7.5387500000000003  -12.2613310000000002
H      11.0372620000000001    2.1998289999999998  -14.3546189999999996
H       8.5249690000000005    8.3548349999999996  -13.4154359999999997
Si     10.5051039999999993    3.2058260000000001  -13.3882750000000001
H       4.2063990000000002    8.0270650000000003   -6.4349670000000003
H      12.0579950000000000    3.8257010000000000  -13.2201939999999993
O       8.1164780000000007    8.4927790000000005  -10.9033149999999992
Si      4.8929520000000002    9.0936369999999993   -5.6491410000000002
O      10.5399569999999994    2.7776890000000001  -11.7184530000000002
H       3.8716520000000001   10.0797419999999995   -5.1771909999999997
H       5.5776100000000000    8.4967000000000006   -4.4633770000000004
Si      8.8294610000000002    8.5250509999999995   -9.4453610000000001
O       5.9562679999999997    9.9208719999999992   -6.6071109999999997
O       9.9899970000000007    9.6999150000000007   -9.3549469999999992
Si     12.9205629999999996   -1.2490410000000001   -7.9288230000000004
Si     11.3781660000000002    3.4832179999999999  -10.5480160000000005
O       7.7132880000000004    8.9080569999999994   -8.3279329999999998
H      14.3632120000000008   -1.4295020000000001   -7.5790569999999997
O       9.4716769999999997    7.0634649999999999   -9.1055440000000001
O      12.9333729999999996    3.8563090000000000  -11.0040750000000003
Si      7.5211209999999999    9.8956859999999995   -7.0414149999999998
O      10.6191650000000006    4.8471979999999997  -10.0460100000000008
O      12.6981310000000001    0.1605640000000000   -8.7613339999999997
O       7.9407880000000004   11.4375540000000004   -7.4130130000000003
O      11.4708109999999994    2.4863759999999999   -9.2274940000000001
Si     10.8388829999999992    6.1999019999999998   -9.1977750000000000
Si     12.7247859999999999    1.7697570000000000   -8.4901319999999991
O      11.9778110000000009    7.1777889999999998   -9.8935680000000001
O      14.1548809999999996    2.4400089999999999   -8.9887099999999993
O       8.3791250000000002    9.3483009999999993   -5.7561879999999999
O      11.2858540000000005    5.7798299999999996   -7.6724550000000002
O      12.6273909999999994    2.0003310000000001   -6.8601880000000000
H      15.0153890000000008    3.0342080000000000   -7.3838720000000002
H      14.8754989999999996    4.8995759999999997   -5.5512779999999999
H      13.5471509999999995    7.1400730000000001   -5.9136899999999999
H      11.8458140000000007    9.4036729999999995   -5.8279470000000000
H      10.8690400000000000    9.4313610000000008   -9.6648519999999998
H      12.8391870000000008    3.8777370000000002  -12.0308650000000004
H       8.7873160000000006   11.5087750000000000   -7.8814200000000003
H      12.6302409999999998    6.7132269999999998  -10.4392589999999998
H      14.0232559999999999    2.9770310000000002   -9.8125719999999994
H      12.4732050000000001   -2.3711530000000001   -8.8033929999999998
H      12.1193469999999994   -1.2483979999999999   -6.6650910000000003
O       8.6094229999999996    4.2626850000000003   -6.4084430000000001
C       7.8677060000000001    4.5152000000000001   -7.5475640000000004
C       7.9810150000000002    3.7894770000000002   -8.7245539999999995
C       7.2507760000000001    4.1467689999999999   -9.8767829999999996
C       6.3346030000000004    5.2121979999999999   -9.7665369999999996
C       6.1960459999999999    5.9243509999999997   -8.5775659999999991
C       6.9788389999999998    5.6012209999999998   -7.4669189999999999
O       6.8983470000000002    6.3480059999999998   -6.3233730000000001
C       7.5801670000000003    3.4641340000000000  -11.1241160000000008
C       7.1802400000000004    3.7772720000000000  -12.3739439999999998
C       7.6302659999999998    3.0561020000000001  -13.6008449999999996
O       8.8373910000000002    2.5008100000000000  -13.6060040000000004
O       6.8590970000000002    2.9802550000000001  -14.5590089999999996
H       9.3797979999999992    3.7196630000000002   -6.6441260000000000
H       8.6918489999999995    2.9612300000000000   -8.7745219999999993
H       5.7324840000000004    5.5013449999999997  -10.6280070000000002
H       5.5147329999999997    6.7721619999999998   -8.5056440000000002
H       7.6377509999999997    6.0712390000000003   -5.7501709999999999
H       8.3021419999999999    2.6507130000000001  -11.0298470000000002
H       6.4343570000000003    4.5527540000000002  -12.5644550000000006
