   91
 
H      14.4416049999999991   -0.8142960000000000   -5.6001539999999999
O      15.1318370000000009    1.7141109999999999   -5.4618760000000002
H      16.4893350000000005   -0.1416760000000000   -4.4391230000000004
H      16.3965309999999995   -0.0184340000000000   -6.8552109999999997
Si     15.5872539999999997    0.1278900000000000   -5.6053389999999998
O      13.1676859999999998    3.3502209999999999   -4.6422299999999996
O      15.1911600000000000    4.3454230000000003   -5.8866699999999996
Si     14.2119619999999998    2.9854110000000000   -5.8411700000000000
O      11.2558419999999995    5.2617459999999996   -4.4487670000000001
O      12.3563030000000005    4.2705590000000004   -2.2780779999999998
O      13.8063669999999998    5.8519110000000003   -3.9137019999999998
Si     12.6561310000000002    4.6583870000000003   -3.8314319999999999
O       9.4915430000000001    6.9970090000000003   -5.4734970000000001
O      11.9474599999999995    7.8059830000000003   -5.0506900000000003
Si     11.0354759999999992    6.4924869999999997   -5.4954489999999998
O       7.6259199999999998    8.2898479999999992   -4.0784229999999999
O       9.7174689999999995    9.6604010000000002   -5.1042230000000002
Si      8.6720050000000004    8.4003549999999994   -5.3228929999999997
H      11.4904019999999996    3.1508650000000000   -0.1698260000000000
H      10.0911639999999991    2.9925400000000000   -2.1653549999999999
H      10.2879609999999992    5.1074460000000004   -0.9731379999999999
Si     11.0175459999999994    3.8705069999999999   -1.3895949999999999
H       8.5543490000000002    6.4982939999999996   -2.4363049999999999
H       6.1526339999999999    6.9611669999999997   -2.4656709999999999
H       7.6892880000000003    8.5945049999999998   -1.5374859999999999
Si      7.5155539999999998    7.5568210000000002   -2.6015910000000000
H       7.1471400000000003    8.1184399999999997  -12.8202599999999993
H       9.4947520000000001    8.0535910000000008  -13.4618819999999992
H       9.5967520000000004    5.2446820000000001  -12.2775510000000008
Si      8.5036909999999999    8.6664139999999996  -12.5244060000000008
H      11.2278540000000007    5.1792059999999998  -14.0907739999999997
H       8.4958629999999999   10.1476799999999994  -12.7301760000000002
Si     11.0476050000000008    5.3472220000000004  -12.6182630000000007
H       5.2243659999999998    9.1911989999999992  -10.8261059999999993
H      11.5451599999999992    6.6982330000000001  -12.2092069999999993
O       8.8578270000000003    8.2907869999999999  -10.9596959999999992
Si      5.5373180000000000    8.6749899999999993   -9.4602959999999996
O      11.9245140000000003    4.1537790000000001  -11.8665839999999996
H       4.2640710000000004    8.4431399999999996   -8.7137689999999992
H       6.2676679999999996    7.3759290000000002   -9.5872969999999995
Si      9.8744599999999991    8.6603150000000007   -9.7297999999999991
O       6.4431459999999996    9.8014740000000007   -8.6675190000000004
O      11.2665019999999991    9.3065630000000006  -10.2962729999999993
Si     12.4599279999999997   -0.7799590000000000   -8.4804089999999999
Si     12.4730699999999999    4.1244610000000002  -10.3237520000000007
O       9.1187050000000003    9.7320670000000007   -8.7611340000000002
H      13.3886760000000002   -1.8351530000000000   -9.1091499999999996
O      10.1538450000000005    7.2887329999999997   -8.8807159999999996
O      13.9418970000000009    4.9056319999999998  -10.2217900000000004
Si      7.8147180000000001    9.9016739999999999   -7.7891950000000003
O      11.4006480000000003    4.9882900000000001   -9.4376610000000003
O      13.7314919999999994    0.4062480000000000   -8.5976119999999998
O       7.8246120000000001   11.3908260000000006   -7.1069199999999997
O      12.6190300000000004    2.6034700000000002   -9.7899189999999994
Si     11.4522849999999998    6.3491809999999997   -8.5531380000000006
Si     13.6721990000000009    2.0031850000000002   -8.6646959999999993
O      12.8000019999999992    7.2248849999999996   -8.9660530000000005
O      15.1993580000000001    2.5447340000000001   -9.1620089999999994
O       7.7913540000000001    8.7060890000000004   -6.6652969999999998
O      11.4429140000000000    5.9651810000000003   -6.9784990000000002
O      13.4586380000000005    2.8556599999999999   -7.2767559999999998
H      15.7500950000000000    4.4163480000000002   -6.6730900000000002
H      14.5230680000000003    5.5909149999999999   -4.5322300000000002
H      12.7930650000000004    7.5380880000000001   -4.6391710000000002
H      10.6446079999999998    9.3703690000000002   -4.9929959999999998
H      12.0540769999999995    8.8096870000000003   -9.9946959999999994
H      14.6591660000000008    4.2818379999999996   -9.9754620000000003
H       8.5363729999999993   11.5116169999999993   -6.4586639999999997
H      13.4928039999999996    6.6507319999999996   -9.3568250000000006
H      15.7076980000000006    1.8485750000000001   -9.6027419999999992
H      11.4086569999999998   -0.7404920000000000   -9.5494109999999992
H      12.1326040000000006   -1.5326670000000000   -7.2264809999999997
O       8.4163040000000002    4.6354959999999998   -8.4352970000000003
C       7.9037870000000003    4.5700839999999996   -7.1673060000000000
C       8.4652809999999992    3.6187380000000000   -6.2796079999999996
C       7.9445079999999999    3.5917569999999999   -4.9703600000000003
C       6.9251800000000001    4.4429129999999999   -4.5549850000000003
C       6.3780799999999997    5.3614689999999996   -5.4580900000000003
C       6.8680230000000000    5.4187419999999999   -6.7603489999999997
C       9.5110360000000007    2.7010710000000002   -6.7380529999999998
C      10.2662960000000005    1.9172590000000000   -5.9424830000000002
C      11.3395759999999992    0.9922650000000000   -6.4169260000000001
O      11.3631580000000003    0.7316670000000000   -7.6956189999999998
O      12.1495189999999997    0.5616370000000001   -5.5731529999999996
H       8.0572520000000001    5.4210909999999997   -8.8795529999999996
H       8.3494379999999992    2.8640219999999998   -4.2666259999999996
H       6.5476390000000002    4.3824579999999997   -3.5337510000000001
H       5.5784680000000000    6.0367530000000000   -5.1509580000000001
H       6.4640339999999998    6.1424859999999999   -7.4708009999999998
H       9.6894799999999996    2.6516720000000000   -7.8140340000000004
H      10.1917310000000008    1.9640089999999999   -4.8533520000000001
