   91
 
H      13.2723370000000003   -0.4536000000000000   -5.3478620000000001
O      15.1517070000000000    1.3400160000000001   -5.1806279999999996
H      14.8954039999999992   -0.5836000000000000   -3.5179610000000001
H      15.5964369999999999   -1.1053980000000001   -5.7790189999999999
Si     14.6951889999999992   -0.2367490000000000   -4.9611349999999996
O      13.7677820000000004    3.4324119999999998   -4.3598039999999996
O      15.6959020000000002    3.8198500000000002   -6.1254369999999998
Si     14.5048060000000003    2.7563770000000001   -5.6708740000000004
O      11.9030790000000000    5.3805449999999997   -4.4169359999999998
O      13.5506390000000003    5.2171510000000003   -2.3842089999999998
O      14.4778090000000006    5.9902670000000002   -4.8074599999999998
Si     13.4460879999999996    4.9833550000000004   -3.9999280000000002
O       9.8493659999999998    6.8648720000000001   -5.1564930000000002
O      12.2272569999999998    7.8638159999999999   -5.4834690000000004
Si     11.3767790000000009    6.4350860000000001   -5.5365399999999996
O       8.1851029999999998    8.2481629999999999   -3.6175730000000001
O       9.9905120000000007    9.5664189999999998   -5.1397930000000001
Si      9.0019200000000001    8.2492070000000002   -5.0273690000000002
H      13.3721779999999999    6.2028340000000002   -0.0525740000000000
H      11.3917850000000005    5.0977870000000003   -0.9429860000000000
H      12.0626250000000006    7.2719600000000000   -1.8055900000000000
Si     12.5623159999999991    5.9609829999999997   -1.2845899999999999
H       8.9847760000000001    6.3445780000000003   -2.0449890000000002
H       7.1392699999999998    7.7925160000000000   -1.3507380000000000
H       9.4197450000000007    8.6480850000000000   -1.3789979999999999
Si      8.4499080000000006    7.7377950000000002   -2.0631480000000000
H       7.1555130000000000    9.0209949999999992  -11.6608909999999995
H       8.4871119999999998    7.4206690000000002  -12.9278030000000008
H      10.3014340000000004    3.6566440000000000  -13.0232749999999999
Si      8.5207759999999997    8.7184310000000007  -12.1920559999999991
H      11.9524779999999993    4.9491290000000001  -14.2448809999999995
H       8.9192699999999991    9.8051349999999999  -13.1396949999999997
Si     11.3381439999999998    4.7279020000000003  -12.8992100000000001
H       5.5251580000000002   10.7726620000000004   -9.9088930000000008
H      10.6906250000000007    5.9905790000000003  -12.4357240000000004
O       9.6288490000000007    8.6506729999999994  -10.9786739999999998
Si      5.0399810000000000    9.6677719999999994   -9.0271650000000001
O      12.5443309999999997    4.2541940000000000  -11.8778070000000007
H       3.6764709999999998    9.9990299999999994   -8.5159920000000007
H       4.9705550000000001    8.4022039999999993   -9.8188139999999997
Si      9.8522230000000004    8.7162030000000001   -9.3645350000000001
O       6.0264620000000004    9.4708640000000006   -7.7170050000000003
O      11.0641239999999996    9.7548849999999998   -8.9835840000000005
Si     14.0225139999999993   -0.9755340000000000   -9.1011360000000003
Si     12.8354660000000003    4.2672780000000001  -10.2664639999999991
O       8.4586659999999991    9.2468620000000001   -8.7033349999999992
H      15.2408059999999992   -1.7058020000000000   -9.5905179999999994
O      10.1912040000000008    7.2291829999999999   -8.7840199999999999
O      14.2370739999999998    5.0716770000000002   -9.9216639999999998
Si      7.6099759999999996    9.5174930000000000   -7.3366330000000000
O      11.5827159999999996    5.0936230000000000   -9.5843430000000005
O      14.5400840000000002    0.5790620000000000   -8.8457439999999998
O       7.9346600000000000   10.9876470000000008   -6.6923810000000001
O      12.8941110000000005    2.7555830000000001   -9.7071210000000008
Si     11.5293840000000003    6.3286249999999997   -8.5369130000000002
Si     13.6284349999999996    1.9307740000000000   -8.4424550000000007
O      12.8423520000000000    7.3191269999999999   -8.7413779999999992
O      15.1913499999999999    2.9396550000000001   -8.6235610000000005
O       7.8947050000000001    8.3120750000000001   -6.2418719999999999
O      11.4602629999999994    5.7484950000000001   -7.0078019999999999
O      13.4530329999999996    2.5582600000000002   -6.8885969999999999
H      15.7795719999999999    3.6804500000000000   -7.1093549999999999
H      15.0913629999999994    5.4697810000000002   -5.3802040000000000
H      13.1923390000000005    7.7375629999999997   -5.5242319999999996
H      10.9294180000000001    9.3207900000000006   -5.2814709999999998
H      11.9289170000000002    9.3096370000000004   -8.9149589999999996
H      14.8143399999999996    4.4051830000000001   -9.4370370000000001
H       8.7922089999999997   11.0149690000000007   -6.2300490000000002
H      13.6039560000000002    6.8174869999999999   -9.1056349999999995
H      15.8275959999999998    2.3864090000000000   -9.1007099999999994
H      12.9829489999999996   -1.0783480000000001  -10.1713140000000006
H      13.5523679999999995   -1.6692110000000000   -7.8664839999999998
O       7.9595589999999996    5.1690620000000003   -6.9788110000000003
C       7.8414080000000004    4.9923599999999997   -8.3265440000000002
C       8.5119340000000001    3.8919820000000001   -8.9170289999999994
C       8.4116300000000006    3.7602190000000002  -10.3167460000000002
C       7.6912320000000003    4.6556369999999996  -11.0997800000000009
C       7.0176040000000004    5.7198130000000003  -10.4882109999999997
C       7.0918270000000003    5.8817110000000001   -9.1081430000000001
C       9.2849880000000002    2.9638480000000000   -8.0905810000000002
C      10.2097949999999997    2.1001270000000001   -8.5571120000000001
C      11.0061300000000006    1.1970769999999999   -7.6800920000000001
O      10.5894750000000002    0.7438720000000000   -6.6241349999999999
O      12.2160960000000003    0.8670590000000000   -8.1786600000000007
H       7.6706729999999999    6.0723830000000003   -6.7551639999999997
H       8.9167620000000003    2.9209040000000002  -10.7962659999999993
H       7.6471939999999998    4.5223709999999997  -12.1809150000000006
H       6.4274139999999997    6.4192850000000004  -11.0817820000000005
H       6.5712339999999996    6.7062099999999996   -8.6180369999999993
H       9.1213350000000002    3.0090880000000002   -7.0119049999999996
H      10.4783229999999996    2.0757409999999998   -9.6131419999999999
