   91
 
H      13.0867950000000004   -0.0219940000000000   -4.0353740000000000
O      14.8466190000000005    1.4965189999999999   -5.1938480000000000
H      15.4511369999999992   -0.6154450000000000   -3.9340050000000000
H      14.2275069999999992   -0.8667460000000000   -6.0205570000000002
Si     14.3749040000000008   -0.0317680000000000   -4.7898959999999997
O      13.1596100000000007    3.4980069999999999   -4.7742979999999999
O      15.5573650000000008    4.0261100000000001   -5.7297300000000000
Si     14.3148490000000006    2.9304290000000002   -5.7572760000000001
O      11.7467120000000005    5.7446989999999998   -5.1936260000000001
O      11.9326570000000007    4.7018750000000002   -2.7579039999999999
O      14.0878409999999992    5.8465379999999998   -3.8599579999999998
Si     12.7208240000000004    4.9535619999999998   -4.1554399999999996
O      10.3484929999999995    7.8682759999999998   -6.0607170000000004
O      12.7132059999999996    8.2445290000000000   -4.9397549999999999
Si     11.8159840000000003    7.2355559999999999   -5.8996380000000004
O       8.3242499999999993    8.0697650000000003   -4.2833850000000000
O      10.2583559999999991    9.8654489999999999   -4.2985990000000003
Si      9.3282330000000009    8.8962090000000007   -5.2578379999999996
H      10.4597020000000001    4.8253620000000002   -0.7014600000000000
H       9.3998640000000009    4.1892060000000004   -2.8036550000000000
H      10.0987139999999993    6.5108769999999998   -2.4400770000000001
Si     10.4176400000000005    5.0797509999999999   -2.1725970000000001
H       7.7561090000000004    5.5324099999999996   -4.6292540000000004
H       5.8996930000000001    7.1576860000000000   -4.7728659999999996
H       7.0149840000000001    6.6967330000000000   -2.6853490000000000
Si      7.2228729999999999    6.8473569999999997   -4.1713750000000003
H       6.5584720000000001    8.3621180000000006  -10.8352280000000007
H       7.5777960000000002    6.3276029999999999  -11.8273240000000008
H       9.8404880000000006    5.2651070000000004  -11.1645610000000008
Si      7.6484880000000004    7.8088709999999999  -11.6783560000000008
H      10.0146139999999999    3.5085489999999999  -12.8861960000000000
H       7.4659269999999998    8.3759479999999993  -13.0622559999999996
Si     10.6325550000000000    4.7371590000000001  -12.3011020000000002
H       5.3458129999999997    7.5358340000000004   -8.7001819999999999
H      10.7868309999999994    5.7602039999999999  -13.3784500000000008
O       9.1632529999999992    8.3323060000000009  -11.2509090000000000
Si      5.3855130000000004    8.7821390000000008   -7.8912560000000003
O      12.1770350000000001    4.3086810000000000  -11.8095199999999991
H       4.1847279999999998    9.5955800000000000   -8.3103079999999991
H       5.2214440000000000    8.5415630000000000   -6.4297659999999999
Si     10.0983420000000006    8.6977519999999995   -9.9785509999999995
O       6.6448939999999999    9.8040420000000008   -8.2399489999999993
O      11.2603390000000001    9.7601580000000006  -10.4902479999999994
Si     14.1894570000000009   -0.5806020000000000   -9.6107080000000007
Si     13.1380199999999991    4.4125319999999997  -10.5202229999999997
O       9.2881669999999996    9.3938839999999999   -8.7715560000000004
H      15.3757719999999996   -1.3230270000000000  -10.1341339999999995
O      10.8837449999999993    7.3557530000000000   -9.4306020000000004
O      14.5483449999999994    5.1402190000000001  -11.0266920000000006
Si      8.1747409999999991   10.1452209999999994   -7.8534290000000002
O      12.5016759999999998    5.2585430000000004   -9.2873660000000005
O      14.7497209999999992    0.8071900000000000   -8.9079080000000008
O       8.3031469999999992   11.7732589999999995   -8.1198340000000009
O      13.4978269999999991    2.9018299999999999   -9.9558190000000000
Si     12.3311759999999992    6.8589130000000003   -8.9407969999999999
Si     14.4372460000000000    2.3968460000000000   -8.7299159999999993
O      13.5237979999999993    7.7128720000000000   -9.7164710000000003
O      15.9010029999999993    3.2101690000000001   -8.7569719999999993
O       8.5220059999999993    9.8586060000000000   -6.2789070000000002
O      12.5495439999999991    7.0565059999999997   -7.3429890000000002
O      13.7760599999999993    2.7507600000000001   -7.2924579999999999
H      16.0363420000000012    4.1013970000000004   -6.5713220000000003
H      14.8542860000000001    5.5345529999999998   -4.3764430000000001
H      13.4269049999999996    7.7872510000000004   -4.4590129999999997
H      11.1826319999999999    9.5699380000000005   -4.2399789999999999
H      12.1569900000000004    9.3886649999999996  -10.4779850000000003
H      15.3069100000000002    4.9251630000000004  -10.4602029999999999
H       9.2151110000000003   12.0940560000000001   -8.1057020000000009
H      14.0576600000000003    7.1778339999999998  -10.3287580000000005
H      16.6236360000000012    2.7337229999999999   -9.1888710000000007
H      13.2631840000000008   -0.2656420000000000  -10.7406009999999998
H      13.4866550000000007   -1.4200770000000000   -8.5978639999999995
O      10.3228190000000009    2.3565900000000002   -9.9656730000000007
C      10.4683630000000001    2.0674399999999999   -8.6296420000000005
C      10.0121319999999994    3.0286249999999999   -7.6930949999999996
C      10.1927590000000006    2.7109250000000000   -6.3323090000000004
C      10.7671419999999998    1.5131960000000000   -5.9126390000000004
C      11.1796489999999995    0.5703460000000000   -6.8591709999999999
C      11.0271050000000006    0.8536910000000000   -8.2172909999999995
C       9.3481919999999992    4.2453130000000003   -8.1603720000000006
C       8.8280290000000008    5.2207070000000000   -7.3909240000000000
C       8.0581809999999994    6.3942810000000003   -7.9532920000000003
O       7.9996600000000004    6.5236729999999996   -9.2040849999999992
O       7.5198190000000000    7.1581260000000002   -7.0790800000000003
H      10.7751020000000004    1.6683070000000000  -10.4790930000000007
H       9.8591350000000002    3.4321869999999999   -5.5857400000000004
H      10.8885579999999997    1.3154960000000000   -4.8474399999999997
H      11.6062419999999999   -0.3848400000000000   -6.5503429999999998
H      11.3142890000000005    0.1179780000000000   -8.9734429999999996
H       9.2229770000000002    4.3611240000000002   -9.2379250000000006
H       8.9060120000000005    5.1941899999999999   -6.3028100000000000
