   91
 
H      15.9451409999999996    0.4184870000000000   -4.3855940000000002
O      15.9686810000000001    2.6988949999999998   -5.6152160000000002
H      18.0685649999999995    1.4055450000000000   -5.0430060000000001
H      16.6015699999999988    0.4523750000000000   -6.7351970000000003
Si     16.6414149999999985    1.2062889999999999   -5.4484659999999998
O      13.8288370000000000    3.3306100000000001   -4.2394639999999999
O      14.9378060000000001    5.1262319999999999   -5.8622379999999996
Si     14.5649069999999998    3.5226730000000002   -5.7129209999999997
O      11.6397449999999996    4.8888790000000002   -4.6432979999999997
O      11.8306679999999993    3.4332509999999998   -2.4284620000000001
O      13.4251140000000007    5.5410610000000000   -2.8011080000000002
Si     12.6726679999999998    4.2390879999999997   -3.5469110000000001
O       9.9391669999999994    6.7470379999999999   -5.4998670000000001
O      12.3280169999999991    7.4833970000000001   -4.6080600000000000
Si     11.5070239999999995    6.2996030000000003   -5.4332520000000004
O       8.2112200000000009    7.5788679999999999   -3.6432959999999999
O      10.1095450000000007    9.2798909999999992   -4.6066700000000003
Si      9.0853540000000006    8.0252060000000007   -4.9537740000000001
H      10.4026720000000008    1.2809390000000000   -2.2271909999999999
H       9.3111049999999995    3.3093020000000002   -3.1180789999999998
H       9.9411649999999998    3.1776659999999999   -0.7883330000000000
Si     10.3308070000000001    2.7662689999999999   -2.1790479999999999
H       9.9263779999999997    6.1648069999999997   -2.2874080000000001
H       7.5657389999999998    5.5158620000000003   -2.2594110000000001
H       8.2970930000000003    7.5220779999999996   -1.0887300000000000
Si      8.5181620000000002    6.6629699999999996   -2.2921819999999999
H       6.5298220000000002    7.5524050000000003  -11.6137800000000002
H       8.3546440000000004    7.2538749999999999  -13.1888819999999996
H       9.1263959999999997    4.5898360000000000  -12.0142080000000000
Si      7.8926509999999999    8.0305549999999997  -11.9982939999999996
H      10.7077690000000008    4.2348949999999999  -13.8219589999999997
H       7.8046840000000000    9.4796809999999994  -12.3613210000000002
Si     10.5704159999999998    4.6558469999999996  -12.3940389999999994
H       5.5777250000000000    9.4726110000000006   -9.7479949999999995
H      11.0452530000000007    6.0665730000000000  -12.2489200000000000
O       8.9591999999999992    7.7847799999999996  -10.7763349999999996
Si      5.1627450000000001    9.8302409999999991   -8.3573020000000007
O      11.4641160000000006    3.6161889999999999  -11.4727990000000002
H       4.2540060000000004   11.0149810000000006   -8.3984039999999993
H       4.4192190000000000    8.6755410000000008   -7.7622970000000002
Si      9.6952619999999996    8.4471270000000001   -9.4785269999999997
O       6.4586309999999996   10.2208919999999992   -7.4182110000000003
O      10.8655259999999991    9.5009519999999998   -9.9462449999999993
Si     13.4011960000000006   -0.9824290000000000   -7.0645879999999996
Si     12.2294750000000008    3.7805710000000001  -10.0271950000000007
O       8.5667729999999995    9.2516669999999994   -8.6250289999999996
H      14.3758020000000002   -2.0836180000000000   -7.3838239999999997
O      10.3315300000000008    7.2597740000000002   -8.5644799999999996
O      13.7406600000000001    4.4138520000000003  -10.2135870000000004
Si      8.0076889999999992    9.7613489999999992   -7.1802120000000000
O      11.3283839999999998    4.8738869999999999   -9.1728190000000005
O      13.8821530000000006    0.2753420000000000   -8.0333369999999995
O       8.8457059999999998   11.0447819999999997   -6.6090359999999997
O      12.2556709999999995    2.3560200000000000   -9.2623490000000004
Si     11.6605869999999996    6.3183280000000002   -8.5138309999999997
Si     13.3096169999999994    1.8554219999999999   -8.0351040000000005
O      12.8765020000000003    7.0690419999999996   -9.3392389999999992
O      14.7782789999999995    2.3823409999999998   -8.9069780000000005
O       8.0249720000000000    8.5409919999999993   -6.0763720000000001
O      12.0995519999999992    6.1627760000000000   -6.9426009999999998
O      13.5793870000000005    3.0674530000000000   -6.8953430000000004
H      14.4320629999999994    5.5797889999999999   -6.5542579999999999
H      14.3854900000000008    5.5185979999999999   -2.9276770000000001
H      12.8390590000000007    7.0938759999999998   -3.8645309999999999
H      11.0297839999999994    8.9673250000000007   -4.4672830000000001
H      11.7449580000000005    9.0923839999999991  -10.0155180000000001
H      14.3738100000000006    3.7409260000000000   -9.7955699999999997
H       9.4755959999999995   10.7982779999999998   -5.9052389999999999
H      13.4729410000000005    6.4115810000000000   -9.7577569999999998
H      15.1692909999999994    1.6261909999999999   -9.3663749999999997
H      12.0381649999999993   -1.5149820000000001   -7.3696560000000000
H      13.5341079999999998   -0.6934510000000000   -5.6050370000000003
O       7.2112699999999998    5.0559219999999998   -5.3006289999999998
C       7.2255070000000003    5.0991020000000002   -6.6708980000000002
C       8.1484079999999999    4.2666160000000000   -7.3503840000000000
C       8.1126900000000006    4.2964070000000003   -8.7602860000000007
C       7.2335070000000004    5.1123510000000003   -9.4611719999999995
C       6.3544020000000003    5.9488139999999996   -8.7641480000000005
C       6.3512190000000004    5.9382960000000002   -7.3717660000000000
C       9.1041650000000001    3.4614020000000001   -6.5931990000000003
C       9.9906220000000001    2.5890700000000000   -7.1173750000000000
C      10.9935989999999997    1.8634620000000000   -6.2923730000000004
O      10.9376370000000005    1.8024819999999999   -5.0643770000000004
O      11.9387139999999992    1.2307280000000000   -6.9915459999999996
H       6.6266610000000004    5.7603720000000003   -4.9765360000000003
H       8.8168679999999995    3.6779449999999998   -9.3146730000000009
H       7.2469799999999998    5.1099290000000002  -10.5505220000000008
H       5.6740800000000000    6.6088860000000000   -9.3036759999999994
H       5.6743209999999999    6.5901300000000003   -6.8137889999999999
H       9.1160730000000001    3.6033539999999999   -5.5109349999999999
H      10.0448369999999993    2.3943829999999999   -8.1872410000000002
