   24
 
O       2.8148219999999999   -0.4893270000000000    0.0992970000000000
C       1.4889340000000000   -0.2756270000000000    0.0658660000000000
C       0.9854730000000000    1.0284810000000000    0.0562430000000000
C      -0.3739940000000000    1.2640270000000000    0.0232150000000000
C      -1.2412820000000000    0.1756890000000000   -0.0006900000000000
C      -2.6846500000000000    0.4668010000000000   -0.0336450000000000
O      -3.1663359999999998    1.5721579999999999   -0.0411390000000000
O      -3.4557790000000002   -0.6395370000000000   -0.0559640000000000
C      -0.7581990000000000   -1.1302820000000000    0.0077450000000000
C       0.6093480000000000   -1.3629510000000000    0.0412100000000000
O       1.1902170000000001   -2.5808770000000001    0.0529820000000000
C       0.3500730000000000   -3.7104710000000001    0.0336580000000000
O       1.9586170000000001    1.9783770000000001    0.0827560000000000
C       1.5627460000000000    3.3323700000000001    0.0809660000000000
H       3.2409610000000000    0.3751400000000000    0.1133740000000000
H      -0.7909360000000000    2.2608039999999998    0.0158530000000000
H      -4.3666900000000002   -0.3255440000000000   -0.0762640000000000
H      -1.4577230000000001   -1.9519370000000000   -0.0116030000000000
H      -0.3031820000000000   -3.7410120000000000    0.9115940000000000
H      -0.2620060000000000   -3.7410980000000000   -0.8735190000000000
H       1.0104770000000001   -4.5749219999999999    0.0486800000000000
H       1.0003740000000001    3.5782729999999998   -0.8242100000000000
H       0.9577880000000000    3.5680320000000001    0.9610700000000000
H       2.4803470000000001    3.9160320000000000    0.1061210000000000
