   81
 
O       5.0798430000000003    9.8629859999999994   -5.5196779999999999
H       3.0720470000000000    9.0733309999999996   -4.1229079999999998
H       4.9643160000000002   10.0266110000000008   -2.9017240000000002
H       3.5174639999999999   11.4804610000000000   -4.2423669999999998
Si      4.1379849999999996   10.1222779999999997   -4.1478250000000001
H      13.7733600000000003   -1.3551400000000000   -5.8432370000000002
O      14.6330760000000009    0.8672810000000000   -4.7381770000000003
H      14.5704849999999997   -1.3645820000000000   -3.5096699999999998
H      16.1693660000000001   -1.1198930000000000   -5.3567169999999997
Si     14.7835669999999997   -0.8096870000000000   -4.8830479999999996
O      13.0188620000000004    2.9861300000000002   -5.2699020000000001
O      15.6405750000000001    3.2751709999999998   -5.4716319999999996
Si     14.3890170000000008    2.1821449999999998   -5.6863039999999998
O      11.2845650000000006    5.0173610000000002   -4.8287920000000000
O      12.8293739999999996    4.1129429999999996   -2.8405659999999999
O      13.8860089999999996    5.5521120000000002   -4.9394049999999998
Si     12.7640449999999994    4.4081039999999998   -4.4533759999999996
O       9.3699110000000001    6.8315580000000002   -5.4141750000000002
O      11.9163870000000003    7.5631930000000001   -5.6210230000000001
Si     10.8626140000000007    6.2828980000000003   -5.8118960000000000
O       7.3249880000000003    8.5235819999999993   -4.8471789999999997
O       9.0384049999999991    7.7338630000000004   -2.9337949999999999
O       9.8083299999999998    9.4820130000000002   -4.9210919999999998
Si      8.8906369999999999    8.1457610000000003   -4.5218559999999997
O       7.4395879999999996   11.1248609999999992   -5.6551720000000003
Si      6.6720850000000000    9.6747660000000000   -5.8662580000000002
H      12.5954200000000007    4.1950690000000002   -0.3032470000000000
H      10.7233280000000004    5.0973740000000003   -1.6250690000000001
H      12.8263999999999996    6.3409490000000002   -1.4759450000000001
Si     12.2088629999999991    4.9746980000000001   -1.5174980000000000
H       8.8920820000000003    7.4644259999999996   -0.4001320000000000
H       6.9834459999999998    8.5345320000000005   -1.5234540000000001
H       9.0941349999999996    9.7469940000000008   -1.2697390000000000
Si      8.4726569999999999    8.4011019999999998   -1.4927630000000001
H       6.9784379999999997    8.4150659999999995  -13.2698450000000001
H       8.7545190000000002    7.0836519999999998  -14.3214579999999998
H      10.6759830000000004    4.7671619999999999  -13.0292390000000005
Si      8.4439550000000008    8.1195430000000002  -13.2851900000000001
H      12.5834879999999991    3.8710300000000002  -14.3042549999999995
H       9.2054930000000006    9.3776440000000001  -13.5731190000000002
Si     12.1683529999999998    4.6861759999999997  -13.1272040000000008
H       4.9022750000000004    9.4533889999999996  -11.8889960000000006
H      12.7451340000000002    6.0688920000000000  -13.2185790000000001
O       8.9327380000000005    7.4753160000000003  -11.8060650000000003
Si      4.0744600000000002    9.8207380000000004  -10.6940829999999991
O      12.8061039999999995    3.8940419999999998  -11.7679860000000005
H       3.6657090000000001   11.2559059999999995  -10.7926129999999993
H       2.8639709999999998    8.9468429999999994  -10.6172590000000007
Si      8.7889040000000005    7.9460410000000001  -10.2353980000000000
O       4.9515130000000003    9.5820740000000004   -9.2703989999999994
O       9.6635150000000003    9.3304950000000009   -9.9052910000000001
Si     14.5927159999999994   -0.8496020000000000   -9.6969840000000005
Si     12.7468620000000001    4.2728339999999996  -10.1706660000000007
O       7.2177330000000000    8.2830770000000005   -9.8979099999999995
O       9.3195969999999999    6.6853300000000004   -9.2993740000000003
O      13.8558420000000009    5.4492500000000001   -9.7409970000000001
Si      6.5653860000000002    9.5049539999999997   -8.9652759999999994
O      11.2577180000000006    4.8832670000000000   -9.8232750000000006
O      14.7701849999999997    0.8288290000000000   -9.7325260000000000
O       7.2420549999999997   10.9621659999999999   -9.3562349999999999
O      13.0226380000000006    2.8871899999999999   -9.2918070000000004
Si     10.8309149999999992    6.1921540000000004   -8.9025949999999998
Si     14.4141279999999998    2.1473789999999999   -8.8255040000000005
O      11.8472139999999992    7.4846430000000002   -9.1813690000000001
O      15.6329089999999997    3.2778410000000000   -9.0391589999999997
O       6.8109950000000001    9.0694420000000004   -7.3946810000000003
O      10.8633469999999992    5.6814730000000004   -7.3405570000000004
O      14.2886190000000006    1.6692560000000001   -7.2509790000000001
H      16.4835369999999983    2.8871440000000002   -5.1848999999999998
H      14.7660529999999994    5.1612419999999997   -5.1076540000000001
H      12.8377809999999997    7.2626270000000002   -5.4810460000000001
H      10.7371390000000009    9.2516359999999995   -5.1237440000000003
H       8.4029469999999993   11.0158430000000003   -5.5345969999999998
H      10.6044289999999997    9.1463599999999996   -9.7142510000000009
H      14.7313790000000004    5.0656520000000000   -9.5295869999999994
H       8.2117649999999998   10.9041519999999998   -9.4586819999999996
H      12.7831039999999998    7.2126310000000000   -9.2741790000000002
H      16.4905130000000000    2.9094940000000000   -9.3031959999999998
H      13.4870839999999994   -1.2409990000000000  -10.6198899999999998
H      14.2877639999999992   -1.3030889999999999   -8.3013230000000000
H      15.8964140000000000   -1.4144870000000000  -10.1630660000000006
