   93
 
O      14.9532550000000004   -1.7506660000000001   -5.4793740000000000
O      14.0864150000000006    0.7839159999999999   -5.4289170000000002
O      15.0282850000000003   -0.4553470000000000   -3.1628340000000001
O      16.6420770000000005    0.4071730000000000   -5.0631640000000004
Si     15.1503639999999997   -0.2868840000000000   -4.7932340000000000
O      13.4400040000000001    3.2769759999999999   -4.8498820000000000
O      15.6146849999999997    2.7999139999999998   -6.3725509999999996
Si     14.0813489999999994    2.3191950000000001   -5.9857120000000004
O      11.4800959999999996    5.0467919999999999   -5.2831359999999998
O      11.8314990000000009    3.8738790000000001   -2.8803030000000001
O      13.5308270000000004    5.7287090000000003   -3.6895530000000001
Si     12.5708739999999999    4.4824510000000002   -4.2103359999999999
O       9.9043089999999996    7.1231380000000000   -5.9514980000000000
O      12.5525439999999993    7.4695309999999999   -5.6008690000000003
Si     11.3716089999999994    6.4377300000000002   -6.1467150000000004
O       8.4654489999999996    7.9091170000000002   -3.8180000000000001
O      10.7043850000000003    9.2262950000000004   -4.5240419999999997
Si      9.3650260000000003    8.4089679999999998   -5.0778829999999999
O      12.0559890000000003    3.6585589999999999   -0.2201600000000000
O       9.7867709999999999    4.5703980000000000   -1.1803699999999999
O      11.8459710000000005    6.1409799999999999   -1.4610900000000000
Si     11.4149270000000005    4.5450419999999996   -1.4420850000000001
O       8.0685269999999996    6.7755359999999998   -1.3779699999999999
O       7.7041880000000003    9.3904899999999998   -1.8063689999999999
O      10.2135119999999997    8.4177309999999999   -1.8734050000000000
Si      8.6116720000000004    8.0804559999999999   -2.1841089999999999
O       7.6996589999999996    9.7971880000000002  -12.8220759999999991
O       8.4442529999999998    7.2956469999999998  -11.9965899999999994
O      10.3451730000000008    5.9101670000000004  -13.3524639999999994
Si      8.9588099999999997    8.8436640000000004  -12.3112469999999998
O       9.7543950000000006    3.2823829999999998  -13.8755790000000001
O      10.1222949999999994    8.7298819999999999  -13.4464790000000001
Si     10.9300739999999994    4.4001690000000000  -13.5908060000000006
O       6.0915540000000004    8.4736879999999992  -10.8033490000000008
O      11.9617679999999993    4.6088339999999999  -14.8530689999999996
O       9.4293879999999994    9.6040440000000000  -10.9472529999999999
Si      5.8037330000000003    8.9631509999999999   -9.2508940000000006
O      11.7222890000000000    3.7849420000000000  -12.2893779999999992
O       5.2153299999999998   10.4958670000000005   -9.2928730000000002
O       4.7969210000000002    7.8552790000000003   -8.5822269999999996
Si     10.3357890000000001    9.3538619999999995   -9.6137619999999995
O       7.1611680000000000    8.8935820000000003   -8.3280809999999992
O      11.8206779999999991   10.0125849999999996   -9.7496349999999996
Si     14.7138899999999992   -0.5555099999999999   -9.0889670000000002
Si     12.3260729999999992    4.2548450000000004  -10.8617170000000005
O       9.5793990000000004   10.0625789999999995   -8.3508180000000003
O      16.0207699999999988    0.0260790000000000   -8.2854460000000003
O      10.4217390000000005    7.7323570000000004   -9.3363399999999999
O      13.8205299999999998    4.9527140000000003  -11.0214649999999992
Si      8.1693280000000001    9.8999880000000005   -7.5467670000000000
O      11.3128919999999997    5.3585010000000004  -10.2081540000000004
O      13.7392129999999995    0.7215430000000000   -9.3524390000000004
O       7.3789819999999997   11.3459369999999993   -7.4572630000000002
O      12.4519660000000005    2.9362439999999999   -9.8926309999999997
Si     11.6005230000000008    6.6258670000000004   -9.2137810000000009
Si     13.5911570000000008    2.2973420000000000   -8.9301150000000007
O      13.0276960000000006    7.3538180000000004   -9.6125880000000006
O      14.9973500000000008    3.1237800000000000   -9.2165020000000002
O       8.4766239999999993    9.3616729999999997   -6.0409810000000004
O      11.6383840000000003    6.0352139999999999   -7.6922660000000000
O      13.1808890000000005    2.4166409999999998   -7.3498390000000002
H      16.2961990000000014    2.1904309999999998   -6.0266830000000002
H      13.4754380000000005    6.4944819999999996   -4.3125479999999996
H      12.1484539999999992    8.2866970000000002   -5.2177179999999996
H      10.7623219999999993    9.1672290000000007   -3.5403669999999998
H      12.5834489999999999    6.2808380000000001   -2.1008830000000001
H      10.7756939999999997    7.6524640000000002   -1.6161600000000000
H      10.4378849999999996    7.8185359999999999  -13.6221519999999998
H      12.5803270000000005    3.8868649999999998  -15.0240740000000006
H       5.6455929999999999   11.1110009999999999   -8.6730730000000005
H      12.5383469999999999    9.3573749999999993   -9.8343179999999997
H      16.6358609999999985   -0.5988910000000000   -7.8769499999999999
H      14.5151160000000008    4.4777630000000004  -10.5169080000000008
H       7.8046930000000003   12.0655020000000004   -6.9724190000000004
H      13.6067300000000007    6.7775299999999996  -10.1517800000000005
H      15.5814330000000005    3.1559990000000000   -8.4322079999999993
O      15.0212369999999993   -1.3252180000000000  -10.5050699999999999
H      15.1126179999999994   -0.7735630000000000  -11.2942260000000001
O      14.0302530000000001   -1.6979690000000001   -8.1006820000000008
H      13.4168079999999996   -2.3247529999999998   -8.5096129999999999
H      14.5563459999999996   -1.7846700000000000   -6.3784349999999996
H      17.3279470000000018    0.1841310000000000   -4.4182459999999999
H      14.4667499999999993   -1.1822619999999999   -2.8599299999999999
H       9.1994530000000001    3.4487000000000001  -14.6498779999999993
H       7.4704889999999997    9.7049040000000009  -13.7574120000000004
H       6.3377900000000000    9.1766070000000006  -11.4381389999999996
H       4.0107520000000001    7.6253580000000003   -9.0947630000000004
H       7.6450839999999998    7.2697520000000004  -11.4320909999999998
H       9.5872560000000000    6.0614679999999996  -12.7422419999999992
H      12.8951139999999995    3.2110810000000001   -0.3959480000000000
H       9.4112390000000001    3.7871959999999998   -0.7538660000000000
H       8.6328770000000006    5.9750540000000001   -1.3471029999999999
H       7.5974839999999997    9.5800020000000004   -0.8645830000000000
