   89
 
H      12.2521360000000001    0.2189100000000000   -4.0085189999999997
O      13.9325639999999993    1.0779200000000000   -5.7973489999999996
H      14.6227820000000008    0.3307970000000000   -3.4210140000000000
H      13.8465629999999997   -1.3297790000000000   -5.0249779999999999
Si     13.6443279999999998    0.0607720000000000   -4.5181620000000002
O      12.9443920000000006    3.3782380000000001   -4.9210409999999998
O      15.1725770000000004    3.4275470000000001   -6.3240970000000001
Si     13.7133160000000007    2.6587320000000001   -6.1458930000000001
O      11.6132369999999998    5.6567170000000004   -5.3288520000000004
O      12.3383079999999996    4.9096159999999998   -2.8511769999999999
O      14.1669560000000008    5.7490750000000004   -4.6434850000000001
Si     12.7319800000000001    4.9338959999999998   -4.4041930000000002
O      10.1108969999999996    7.7282630000000001   -6.1841049999999997
O      12.7721169999999997    7.8233290000000002   -6.3934319999999998
Si     11.4319790000000001    6.8401079999999999   -6.4199719999999996
O       9.0848929999999992    8.3524849999999997   -3.7124630000000001
O      10.8081750000000003    9.9685140000000008   -4.9399970000000000
Si      9.5634329999999999    8.8997050000000009   -5.1365610000000004
H      12.0948170000000008    5.8326539999999998   -0.5402760000000000
H      10.3113960000000002    4.3963869999999998   -1.3096040000000000
H      10.5769479999999998    6.7159540000000000   -2.2135090000000002
Si     11.2366220000000006    5.4817879999999999   -1.7242560000000000
H       7.8741139999999996    6.4684590000000002   -2.0454439999999998
H       6.3545600000000002    7.8835769999999998   -3.5595620000000001
H       7.6551539999999996    8.7398450000000008   -1.8836269999999999
Si      7.7147139999999998    7.6447010000000004   -2.9627610000000000
H       5.3787079999999996    6.9776769999999999  -11.5125620000000009
H       7.5842140000000002    6.1007009999999999  -12.0579509999999992
H       9.1977499999999992    4.0015619999999998  -12.9260920000000006
Si      6.7676829999999999    7.3503379999999998  -11.9151760000000007
H      10.7388340000000007    3.9042680000000001  -14.8118669999999995
H       6.7212040000000002    8.0280790000000000  -13.2480770000000003
Si     10.5055770000000006    4.4949050000000002  -13.4609410000000000
H       3.5150899999999998    8.3522900000000000   -7.1256149999999998
H      10.4658840000000009    5.9844619999999997  -13.5587040000000005
O       7.4456420000000003    8.3921229999999998  -10.8432410000000008
Si      4.5206980000000003    8.2969329999999992   -6.0134629999999998
O      11.7513799999999993    3.9897429999999998  -12.4869760000000003
H       3.8439649999999999    8.7144180000000002   -4.7508910000000002
H       5.0321309999999997    6.9040609999999996   -5.8925799999999997
Si      8.3817769999999996    8.4480430000000002   -9.5032289999999993
O       5.7179589999999996    9.3795590000000004   -6.3460660000000004
O       9.3768670000000007    9.7598199999999995   -9.5934270000000001
Si     11.7697070000000004   -0.6676200000000000   -8.2717729999999996
Si     12.1107060000000004    4.2888739999999999  -10.9181419999999996
O       7.4398650000000002    8.5656189999999999   -8.1935719999999996
H      12.6076599999999992   -1.9051469999999999   -8.2973330000000001
O       9.2773310000000002    7.0699990000000001   -9.4784299999999995
O      13.6004909999999999    4.9648539999999999  -10.7583839999999995
Si      7.1590740000000004    9.6882050000000000   -7.0142329999999999
O      10.9563330000000008    5.3059269999999996  -10.3795880000000000
O      12.6504799999999999    0.5100560000000000   -9.0455469999999991
O       7.0366660000000003   11.1924229999999998   -7.6753479999999996
O      12.0425839999999997    2.8649819999999999  -10.1083879999999997
Si     10.8187549999999995    6.6009169999999999   -9.3716100000000004
Si     12.9837530000000001    2.0974050000000002   -9.0193750000000001
O      11.7324219999999997    7.8790480000000001   -9.9098349999999993
O      14.5811630000000001    2.3178070000000002   -9.4755929999999999
O       8.3528040000000008    9.6705950000000005   -5.9234229999999997
O      11.3117920000000005    6.1337849999999996   -7.9016359999999999
O      12.8761720000000004    2.7757860000000001   -7.5496359999999996
H      15.5773879999999991    3.3278780000000001   -7.1987360000000002
H      14.8357399999999995    5.2165650000000001   -5.1084180000000003
H      13.4952050000000003    7.4270389999999997   -5.8707419999999999
H      11.6296119999999998    9.6799949999999999   -5.3666530000000003
H      10.3059110000000000    9.5282900000000001   -9.7674230000000009
H      14.2854799999999997    4.3436610000000000  -10.4582549999999994
H       7.8728210000000001   11.5262930000000008   -8.0321189999999998
H      12.6265180000000008    7.9196099999999996   -9.5389680000000006
H      14.9382110000000008    1.6314000000000000  -10.0559139999999996
H      10.5111089999999994   -0.9135500000000000   -9.0350560000000009
H      11.4621420000000001   -0.2949200000000000   -6.8644670000000003
C       8.4961330000000004    5.2305359999999999   -4.6506819999999998
C       8.3930710000000008    4.6478310000000000   -6.0580249999999998
C       7.5406719999999998    5.2541750000000000   -6.9876760000000004
C       7.4993610000000004    4.7819929999999999   -8.2947699999999998
O       6.6502090000000003    5.3414120000000000   -9.2195199999999993
C       8.3477669999999993    3.7389359999999998   -8.6766810000000003
O       8.3508209999999998    3.2861780000000000  -10.0092540000000003
C       9.1521709999999992    3.0903529999999999   -7.7315209999999999
O       9.8909830000000003    2.0013120000000000   -8.1454869999999993
C       9.1861080000000008    3.5470429999999999   -6.4162509999999999
O       7.7968219999999997    6.3073569999999997   -4.4949529999999998
O       9.2306419999999996    4.6719920000000004   -3.8164210000000001
H       6.9304370000000004    6.0992959999999998   -6.6822970000000002
H       6.7180730000000004    4.7856259999999997  -10.0183619999999998
H       8.9304389999999998    3.8845519999999998  -10.5179200000000002
H       9.6686139999999998    1.8952789999999999   -9.0916829999999997
H       9.8283170000000002    3.0837319999999999   -5.6684140000000003
