   89
 
H      14.4235810000000004   -1.2031220000000000   -5.6309209999999998
O      15.2589919999999992    1.2205750000000000   -5.1762740000000003
H      16.6753019999999985   -0.8469880000000000   -4.7774489999999998
H      16.1538509999999995   -0.3122050000000000   -7.0867959999999997
Si     15.6173769999999994   -0.3055260000000000   -5.6856289999999996
O      13.6814780000000003    3.2660670000000001   -4.7409530000000002
O      15.5331360000000007    3.5198019999999999   -6.6094530000000002
Si     14.4585080000000001    2.4517980000000001   -5.9327540000000001
O      12.2580639999999992    5.5681989999999999   -4.6299630000000001
O      13.6651650000000000    4.8054990000000002   -2.5675509999999999
O      14.9482040000000005    5.6568160000000001   -4.7484999999999999
Si     13.6512569999999993    4.8041179999999999   -4.2084130000000002
O      10.2393619999999999    7.0549540000000004   -5.4949700000000004
O      12.3470720000000007    8.2694880000000008   -4.5456830000000004
Si     11.8600759999999994    6.9345910000000002   -5.4108820000000000
O       8.4319120000000005    7.3339740000000004   -3.5403280000000001
O       9.6326760000000000    9.5089959999999998   -4.5559500000000002
Si      9.0498490000000000    8.0115169999999996   -4.8868749999999999
H      13.2436480000000003    5.2055379999999998   -0.0999140000000000
H      11.4223830000000000    4.2276990000000003   -1.3865680000000000
H      11.9857200000000006    6.5782569999999998   -1.6688200000000000
Si     12.5455559999999995    5.2131429999999996   -1.4221029999999999
H       9.2651939999999993    4.8815739999999996   -3.2777669999999999
H       7.0318139999999998    5.4776720000000001   -2.4545669999999999
H       9.0069300000000005    6.2710960000000000   -1.2988350000000000
Si      8.4368829999999999    5.9475239999999996   -2.6456490000000001
H       8.0430320000000002    3.3968829999999999  -11.3868360000000006
H      10.4103580000000004    3.5415530000000000  -10.7443130000000000
H      12.9258939999999996    6.1793600000000000  -13.9291549999999997
Si      9.2652230000000007    4.2541330000000004  -11.3676180000000002
H      13.6479330000000001    7.6517410000000003  -12.1336879999999994
H       9.6045370000000005    4.6374860000000000  -12.7750780000000006
Si     12.7293990000000008    6.5183780000000002  -12.4870570000000001
H       5.3095800000000004    7.2800510000000003  -10.0322870000000002
H      11.3229489999999995    6.9833059999999998  -12.2854189999999992
O       8.8892779999999991    5.6423709999999998  -10.5388179999999991
Si      4.7562300000000004    7.0865960000000001   -8.6594099999999994
O      13.0337420000000002    5.1909450000000001  -11.5747239999999998
H       3.5047869999999999    7.8813459999999997   -8.4830550000000002
H       4.3710449999999996    5.6346939999999996   -8.5266739999999999
Si      9.4127880000000008    6.6980820000000003   -9.4296849999999992
O       5.8309800000000003    7.4589420000000004   -7.4739360000000001
O       9.5522120000000008    8.2249499999999998  -10.0729410000000001
Si     11.6415930000000003   -0.2699040000000000   -9.8683700000000005
Si     13.7408120000000000    4.7352699999999999  -10.1567019999999992
O       8.2857470000000006    6.7775970000000001   -8.2498900000000006
H      12.1019199999999998   -1.4497380000000000  -10.6739920000000001
O      10.8562469999999998    6.2330740000000002   -8.8387949999999993
O      15.3386390000000006    4.4671729999999998  -10.3802059999999994
Si      7.4061810000000001    7.9488969999999997   -7.5193079999999997
O      13.5592480000000002    6.0042260000000001   -9.1078109999999999
O      13.0001590000000000    0.5930370000000000   -9.5135410000000000
O       7.4931729999999996    9.3382989999999992   -8.3880669999999995
O      12.9742920000000002    3.4365559999999999   -9.5973360000000003
Si     12.3236889999999999    6.8438639999999999   -8.4845550000000003
Si     13.1992680000000000    2.0364710000000001   -8.6981490000000008
O      12.3058350000000001    8.3565749999999994   -9.2006599999999992
O      14.9698080000000004    2.1367159999999998   -9.0500430000000005
O       7.8497940000000002    8.1685829999999999   -5.9759349999999998
O      12.5381199999999993    7.0165139999999999   -6.8867609999999999
O      13.4953319999999994    1.7923300000000000   -7.0475909999999997
H      15.6392869999999995    3.2890009999999998   -7.5603100000000003
H      15.3571100000000005    5.2368569999999997   -5.5335580000000002
H      13.3005849999999999    8.3417999999999992   -4.3968610000000004
H      10.5852579999999996    9.5019109999999998   -4.3540210000000004
H      10.4756440000000008    8.5467110000000002  -10.0226459999999999
H      15.5109220000000008    3.5491809999999999  -10.0490630000000003
H       8.1925010000000000    9.2917269999999998   -9.0725379999999998
H      13.1602779999999999    8.6614439999999995   -9.5353230000000000
H      15.3800989999999995    1.2613740000000000   -8.9929849999999991
H      10.6665690000000009    0.4947600000000000  -10.7102509999999995
H      10.9350480000000001   -0.7959270000000001   -8.6593420000000005
C      10.9328930000000000    3.0894230000000000   -7.6026100000000003
C       9.4387209999999993    3.1328990000000001   -7.4584409999999997
C       8.9215549999999997    4.0198820000000000   -6.5096140000000000
C       7.5442729999999996    4.1606059999999996   -6.3840329999999996
O       7.0306210000000000    5.0288469999999998   -5.4585390000000000
C       6.6926870000000003    3.4376970000000000   -7.2272759999999998
O       5.3019829999999999    3.5619329999999998   -7.0978250000000003
C       7.2151779999999999    2.5232389999999998   -8.1527809999999992
O       6.3591160000000002    1.7990159999999999   -8.9414250000000006
C       8.5955610000000000    2.3624220000000000   -8.2708929999999992
O      11.6333490000000008    3.9606119999999998   -7.0844569999999996
O      11.3976450000000007    2.0893400000000000   -8.3240520000000000
H       9.5993259999999996    4.6111709999999997   -5.9001219999999996
H       6.0595840000000001    4.9630299999999998   -5.5026450000000002
H       4.9998959999999997    4.3293609999999996   -7.6285270000000001
H       5.4599440000000001    2.0248719999999998   -8.6364409999999996
H       9.0071980000000007    1.6587179999999999   -8.9912299999999998
