   89
 
H      13.4159109999999995   -1.0195900000000000   -5.0680410000000000
O      14.7724630000000001    1.1388819999999999   -5.4238799999999996
H      13.3259519999999991    0.6824280000000000   -3.3083819999999999
H      15.3657470000000007   -0.6135860000000000   -3.6875719999999998
Si     14.1854300000000002    0.0342990000000000   -4.3385710000000000
O      13.3481070000000006    3.3417170000000000   -5.0347629999999999
O      15.8290620000000004    3.5713590000000002   -5.9380750000000004
Si     14.4574189999999998    2.6404209999999999   -5.9746430000000004
O      12.1331659999999992    5.6745929999999998   -5.4561859999999998
O      12.2979489999999991    4.6526199999999998   -2.9819950000000000
O      14.4834580000000006    5.6130639999999996   -4.1494030000000004
Si     13.0414619999999992    4.8296950000000001   -4.4056720000000000
O      10.5573300000000003    7.7870369999999998   -5.9461250000000003
O      12.9614080000000005    8.1760439999999992   -4.8945689999999997
Si     12.0643829999999994    7.2479680000000002   -5.9229099999999999
O       8.4158880000000007    7.6035399999999997   -4.2890360000000003
O       9.8416569999999997    9.8873189999999997   -4.5272490000000003
Si      9.2384249999999994    8.5242780000000007   -5.2937630000000002
H      11.0867930000000001    5.0298590000000001   -0.7978880000000000
H       9.8702020000000008    3.8912160000000000   -2.5738460000000001
H      10.3369870000000006    6.3196450000000004   -2.7289029999999999
Si     10.8242460000000005    4.9913780000000001   -2.2717580000000002
H       7.6275269999999997    5.3395830000000002   -3.0006050000000002
H       6.3535909999999998    5.8810200000000004   -5.1626040000000000
H       6.3248059999999997    7.1989890000000001   -3.2892109999999999
Si      7.3040419999999999    6.3240939999999997   -4.0896960000000000
H       6.3327239999999998    7.5613560000000000   -8.2613160000000008
H       6.7298289999999996    5.3229319999999998   -9.2685230000000001
H      10.7876159999999999    3.8391530000000000  -13.3169409999999999
Si      6.7160390000000003    6.7961169999999997   -9.4781910000000007
H      11.4496800000000007    6.1373490000000004  -13.7396619999999992
H       5.6999860000000000    7.0868279999999997  -10.5475169999999991
Si     11.2262350000000009    5.1145759999999996  -12.6734039999999997
H       6.2630140000000001   10.0264170000000004  -10.3225510000000007
H      10.2160720000000005    5.5906859999999998  -11.6961750000000002
O       8.1627419999999997    7.3070310000000003  -10.1125520000000009
Si      5.9112159999999996   10.8069310000000005   -9.0958980000000000
O      12.7040009999999999    4.8441340000000004  -11.9567119999999996
H       5.4708490000000003   12.1778239999999993   -9.5059159999999991
H       4.7801869999999997   10.1318000000000001   -8.3901450000000004
Si      9.4969339999999995    8.1885139999999996   -9.8818979999999996
O       7.2052449999999997   10.9683969999999995   -8.0937950000000001
O      10.0348939999999995    8.6272210000000005  -11.3771269999999998
Si     14.3292830000000002   -0.6821980000000000   -9.1360560000000000
Si     13.4567680000000003    4.7721210000000003  -10.5292329999999996
O       9.2211330000000000    9.5274750000000008   -8.9987370000000002
H      15.5331799999999998   -1.5467260000000000   -9.3322199999999995
O      10.6465259999999997    7.2745470000000001   -9.1507850000000008
O      14.9388260000000006    5.4810179999999997  -10.7439079999999993
Si      8.6050149999999999   10.2377529999999997   -7.6617620000000004
O      12.6393050000000002    5.5024189999999997   -9.3306439999999995
O      14.7953259999999993    0.8658830000000000   -9.4920939999999998
O       9.6538020000000007   11.3795900000000003   -7.1224100000000004
O      13.6673449999999992    3.1871830000000001  -10.1051699999999993
Si     12.2298659999999995    7.0553080000000001   -8.9653989999999997
Si     14.5812790000000003    2.4073799999999999   -9.0143240000000002
O      12.9891290000000001    8.0862520000000000  -10.0160070000000001
O      16.0899220000000014    3.1355580000000001   -8.9225460000000005
O       8.3055979999999998    9.1458569999999995   -6.4886119999999998
O      12.7012319999999992    7.3355119999999996   -7.4343909999999997
O      13.9461160000000000    2.5198360000000002   -7.5284209999999998
H      16.2913420000000002    3.6127270000000000   -6.7934310000000000
H      15.2134470000000004    5.2422730000000000   -4.6768650000000003
H      13.7416440000000009    7.7153200000000002   -4.5403200000000004
H      10.6615690000000001    9.7296320000000005   -4.0367670000000002
H      10.9681400000000000    8.8881660000000000  -11.3906270000000003
H      15.6097629999999992    5.1698069999999996  -10.1160490000000003
H       9.9045919999999992   11.2113899999999997   -6.1933579999999999
H      13.9203399999999995    7.8972769999999999  -10.2025319999999997
H      16.7703629999999997    2.7317529999999999   -9.4794389999999993
H      13.2637499999999999   -1.1309210000000001  -10.0811899999999994
H      13.8609510000000000   -0.8061750000000000   -7.7263250000000001
C       8.7658760000000004    5.1824050000000002   -6.3886669999999999
C       9.5132469999999998    4.0171650000000003   -7.0182869999999999
C      10.0368650000000006    2.9905460000000001   -6.2200160000000002
C      10.7090890000000005    1.9317640000000000   -6.8245769999999997
O      11.2529610000000009    0.9133610000000000   -6.0752230000000003
C      10.8364110000000000    1.8980919999999999   -8.2178050000000002
O      11.5423890000000000    0.8268540000000000   -8.8064169999999997
C      10.3533559999999998    2.9449260000000002   -9.0076669999999996
O      10.5364970000000007    2.9116610000000001  -10.3742199999999993
C       9.6809080000000005    4.0050900000000000   -8.4084420000000009
O       8.6545310000000004    5.1311739999999997   -5.1036549999999998
O       8.3236600000000003    6.0849830000000003   -7.1253510000000002
H       9.9113000000000007    3.0293260000000002   -5.1392850000000001
H      11.6848939999999999    0.3139550000000000   -6.7125979999999998
H      10.9063580000000009    0.2402350000000000   -9.2502549999999992
H      11.2527950000000008    2.2733850000000002  -10.5470550000000003
H       9.3037100000000006    4.8335129999999999   -9.0030970000000003
