   32
 
Si      4.2203140000000001    0.1816090000000000   -0.3263550000000000
O       4.4731199999999998    1.7141329999999999   -0.9577329999999999
O       5.2612290000000002    0.0747480000000000    0.9426650000000000
O       4.5605969999999996   -0.8490940000000000   -1.5847160000000000
C       2.4859110000000002   -0.1019940000000000    0.3131910000000000
C       1.3865520000000000    0.3185900000000000   -0.6782470000000000
H       2.3719510000000001    0.4327210000000000    1.2725240000000000
H       2.3934380000000002   -1.1786110000000001    0.5568210000000000
C      -0.0073030000000000   -0.0037930000000000   -0.1591900000000000
H       1.5227420000000000   -0.1803130000000000   -1.6516949999999999
H       1.4461839999999999    1.4021269999999999   -0.8709519999999999
O      -0.9693000000000001    0.5097090000000000   -1.0765330000000000
C      -2.2955139999999998    0.1230220000000000   -0.7364500000000000
C      -3.2516069999999999    0.8051910000000000   -1.6750110000000000
O      -3.7358989999999999    2.1103519999999998   -1.2886979999999999
C      -4.6612340000000003    1.0068960000000000   -1.3014340000000000
H      -0.1598330000000000    0.4487960000000000    0.8424350000000000
H      -0.1327210000000000   -1.1013269999999999   -0.0477630000000000
H      -2.4053390000000001   -0.9805490000000000   -0.8326880000000000
H      -2.5373890000000001    0.4043860000000000    0.3088990000000000
H      -5.4265260000000000    1.0424869999999999   -2.0837189999999999
H      -5.0076000000000001    0.6804690000000000   -0.3131410000000000
H      -2.9969960000000002    0.7202360000000000   -2.7393640000000001
Si      6.6221009999999998    0.8584630000000000    1.4909460000000001
O       6.3014039999999998    1.5923419999999999    2.9465020000000002
O       7.1373100000000003    1.8937660000000001    0.3107020000000000
O       7.8262099999999997   -0.2129060000000000    1.8249470000000001
H       7.9870299999999999   -0.3431180000000000    2.7735889999999999
H       5.6288470000000004    2.2913839999999999    2.9451619999999998
H       6.4226120000000000    2.0974230000000000   -0.3268100000000000
H       4.1403480000000004   -1.7233600000000000   -1.5539620000000001
H       4.2978529999999999    1.8096859999999999   -1.9059219999999999
