   91
 
H      13.8011440000000007   -0.5788620000000000   -3.9322319999999999
O      15.2184469999999994    1.1893700000000000   -5.1578759999999999
H      15.7692230000000002   -1.2797719999999999   -5.1793240000000003
H      13.7590590000000006   -0.5976560000000000   -6.3746950000000000
Si     14.6014309999999998   -0.3469650000000000   -5.1711060000000000
O      13.9342369999999995    3.4136649999999999   -4.5093310000000004
O      16.2817259999999990    3.6185480000000001   -5.6643619999999997
Si     14.8949920000000002    2.7117049999999998   -5.6292859999999996
O      12.6425380000000001    5.7034549999999999   -4.9419979999999999
O      13.0572630000000007    4.8512180000000003   -2.4701540000000000
O      15.1318120000000000    5.7604899999999999   -3.9118420000000000
Si     13.6996359999999999    4.9439729999999997   -3.9658570000000002
O      10.8407870000000006    7.5827270000000002   -5.4796459999999998
O      13.2405600000000003    8.3267399999999991   -4.7101959999999998
Si     12.4080180000000002    7.1917280000000003   -5.5827220000000004
O       8.9985269999999993    7.3985950000000003   -3.5623540000000000
O      10.6289359999999995    9.5050469999999994   -3.6199530000000002
Si      9.7952139999999996    8.4375699999999991   -4.5453340000000004
H      11.9548509999999997    5.3532409999999997   -0.2423000000000000
H      10.4910359999999994    4.9659529999999998   -2.1527790000000002
H      11.7614120000000000    7.0501709999999997   -1.9929930000000000
Si     11.7731230000000000    5.5864890000000003   -1.7059290000000000
H       7.5069169999999996    5.8536979999999996   -2.2345169999999999
H       6.8600610000000000    6.2960589999999996   -4.5429649999999997
H       6.5845310000000001    8.0239349999999998   -2.8440550000000000
Si      7.4443210000000004    6.8931820000000004   -3.3065519999999999
H       7.0932719999999998    6.5595670000000004  -12.3353500000000000
H       7.8505669999999999    4.4318109999999997  -11.1744450000000004
H      10.1920169999999999    4.5600480000000001  -10.6358479999999993
Si      7.8244949999999998    5.9331180000000003  -11.1987279999999991
H      10.6040939999999999    4.3009310000000003  -13.1605799999999995
H       9.2039939999999998    5.7315449999999997  -12.2155799999999992
Si     10.7922759999999993    5.0833449999999996  -11.9001049999999999
H       5.8251400000000002    9.4227570000000007   -9.3721429999999994
H      11.2269360000000002    6.5184790000000001  -11.9985959999999992
O       8.7747860000000006    7.0430869999999999  -10.3668720000000008
Si      5.5094789999999998   10.0900379999999998   -8.0769789999999997
O      12.4333050000000007    4.4345390000000000  -11.5514449999999993
H       5.2208959999999998   11.5400270000000003   -8.3325220000000009
H       4.3180199999999997    9.4795169999999995   -7.4244370000000002
Si      9.5657019999999999    7.8078260000000004   -9.2148939999999993
O       6.7927850000000003   10.0124779999999998   -7.0286239999999998
O      10.2802179999999996    9.2099460000000004   -9.7618489999999998
Si     13.9906950000000005   -0.4245210000000000   -9.5547909999999998
Si     13.4334089999999993    4.5101680000000002  -10.3224710000000002
O       8.5695770000000007    8.2758500000000002   -8.0076649999999994
H      14.5422069999999994   -1.7304580000000001   -9.0875749999999993
O      10.7403890000000004    6.8382579999999997   -8.5937520000000003
O      14.8098869999999998    5.3235539999999997  -10.8035359999999994
Si      8.3580679999999994    9.5736190000000008   -7.0341579999999997
O      12.8734140000000004    5.2720279999999997   -8.9671699999999994
O      14.9037459999999999    0.7660720000000000   -8.8458559999999995
O       9.3430920000000004   10.7958180000000006   -7.5174649999999996
O      13.8590470000000003    2.9971589999999999   -9.7826959999999996
Si     12.3566610000000008    6.7717400000000003   -8.6087889999999998
Si     14.7773070000000004    2.3784749999999999   -8.6088389999999997
O      12.9657549999999997    7.8840290000000000   -9.6803380000000008
O      16.3124660000000006    3.0362809999999998   -8.5890249999999995
O       8.6923230000000000    9.1789710000000007   -5.4766919999999999
O      12.9172759999999993    7.1811959999999999   -7.1241610000000000
O      14.2066920000000003    2.7087919999999999   -7.1146000000000003
H      16.7025550000000003    3.6142310000000002   -6.5437320000000003
H      15.8247380000000000    5.3322950000000002   -4.4493780000000003
H      14.1420200000000005    8.0769249999999992   -4.4542880000000000
H      11.5911629999999999    9.4698220000000006   -3.7532640000000002
H      11.1901820000000001    9.0728069999999992  -10.0816839999999992
H      15.4759609999999999    5.4111459999999996  -10.1057319999999997
H       9.8202520000000000   10.5641029999999994   -8.3400630000000007
H      13.4745209999999993    7.5052279999999998  -10.4146699999999992
H      16.8754680000000015    2.8094410000000001   -9.3421959999999995
H      14.1040630000000000   -0.3383610000000000  -11.0415200000000002
H      12.5572219999999994   -0.3129960000000000   -9.1529170000000004
O      11.8300169999999998    1.4605459999999999   -5.1118509999999997
C      10.9745050000000006    2.2583850000000001   -5.8387060000000002
C      10.7558629999999997    1.9332520000000000   -7.1798900000000003
C       9.8616379999999992    2.6921870000000001   -7.9276419999999996
C       9.1634910000000005    3.7834780000000001   -7.3702470000000000
C       9.4401720000000005    4.1179769999999998   -6.0297989999999997
C      10.3268319999999996    3.3636240000000002   -5.2708230000000000
C       8.1951560000000008    4.4889989999999997   -8.2024080000000001
C       7.3200510000000003    5.4462039999999998   -7.8334000000000001
C       6.3056559999999999    6.0780690000000002   -8.7271090000000004
O       6.4590410000000000    6.0263299999999997  -10.0494640000000004
O       5.3207389999999997    6.6115449999999996   -8.2154439999999997
H      12.0571380000000001    1.9296439999999999   -4.2911130000000002
H      11.2929589999999997    1.0928300000000000   -7.6197920000000003
H       9.6941980000000001    2.4440469999999999   -8.9773209999999999
H       8.9600410000000004    4.9839140000000004   -5.5744910000000001
H      10.5183370000000007    3.6318730000000001   -4.2292199999999998
H       8.1828459999999996    4.1631679999999998   -9.2460710000000006
H       7.2441979999999999    5.7881320000000001   -6.7996010000000000
