   91
 
H      14.2423629999999992   -0.2825900000000000   -5.6135570000000001
O      15.8745849999999997    1.5230790000000001   -6.5447110000000004
H      16.5644869999999997   -0.8929589999999999   -6.1427250000000004
H      14.9741780000000002   -0.4629410000000000   -7.9207419999999997
Si     15.3947310000000002   -0.0549350000000000   -6.5333959999999998
O      14.7029800000000002    3.3818120000000000   -5.0750820000000001
O      16.1635740000000006    4.1291120000000001   -7.1454990000000000
Si     15.1423279999999991    2.9915810000000000   -6.5953049999999998
O      13.1050839999999997    5.4723540000000002   -5.4276340000000003
O      13.2197809999999993    4.2678849999999997   -3.0298050000000001
O      15.2656550000000006    5.7093749999999996   -3.8288730000000002
Si     14.0569199999999999    4.6993559999999999   -4.3436959999999996
O      11.0340950000000007    7.1395320000000000   -5.6626320000000003
O      13.1552039999999995    7.9447359999999998   -4.3224549999999997
Si     12.6442350000000001    7.0413269999999999   -5.6092380000000004
O       8.7158080000000009    6.8921989999999997   -4.4449009999999998
O      10.3211879999999994    8.9701719999999998   -3.8304930000000001
Si      9.7720640000000003    7.9812300000000000   -5.0204000000000004
H      11.2974689999999995    2.6446320000000001   -2.4895299999999998
H      10.7183630000000001    4.8227110000000000   -3.4613600000000000
H      11.5492589999999993    4.6713279999999999   -1.1627040000000000
Si     11.6349459999999993    4.0959440000000003   -2.5390280000000001
H       6.9921699999999998    5.2488020000000004   -3.5679319999999999
H       6.1604619999999999    7.2654209999999999   -4.7046310000000000
H       7.1508060000000002    7.4113170000000004   -2.4773030000000000
Si      7.2008679999999998    6.7066949999999999   -3.7999130000000001
H       8.0599450000000008    4.5306240000000004   -9.9639900000000008
H      10.2206030000000005    3.7779479999999999  -10.8180770000000006
H      11.9313280000000006    5.1990619999999996  -12.8375459999999997
Si      9.1439529999999998    4.8067810000000000  -10.9500200000000003
H      13.6302120000000002    6.4813859999999996  -14.0275540000000003
H       8.6023259999999997    4.7606789999999997  -12.3406439999999993
Si     12.9943860000000004    6.2366729999999997  -12.6989140000000003
H       5.9647870000000003    7.2060209999999998   -9.9089220000000005
H      12.4247069999999997    7.5045880000000000  -12.1629950000000004
O       9.7939229999999995    6.3111860000000002  -10.7236499999999992
Si      5.6821359999999999    8.2074130000000007   -8.8169240000000002
O      14.1998940000000005    5.6781379999999997  -11.6962569999999992
H       6.5570130000000004    9.3386999999999993   -9.6297219999999992
H       4.4853370000000004    9.1041340000000002   -8.8815030000000004
Si     10.2757579999999997    7.3247400000000003   -9.5458060000000007
O       6.8045059999999999    8.3052379999999992   -7.5030310000000000
O      10.5733029999999992    8.8359210000000008  -10.1406109999999998
Si     10.5099289999999996    0.9746390000000000   -8.9674549999999993
Si     14.4020840000000003    5.1819400000000000  -10.1633490000000002
O       9.1731700000000007    7.3853949999999999   -8.3521029999999996
H      10.4640860000000000    0.1519660000000000  -10.2168320000000001
O      11.7010299999999994    6.7332910000000004   -8.9679199999999994
O      15.9334919999999993    4.5691829999999998   -9.9390839999999994
Si      8.3696359999999999    8.6588879999999993   -7.6358160000000002
O      14.3203200000000006    6.3880429999999997   -9.0859020000000008
O      11.8442629999999998    1.9454880000000001   -9.0560229999999997
O       8.6314639999999994    9.9971870000000003   -8.5857200000000002
O      13.2988090000000003    4.0049669999999997   -9.8607639999999996
Si     13.1391130000000000    7.4269010000000000   -8.6018290000000004
Si     13.3105239999999991    2.5924960000000001   -9.0571669999999997
O      13.3260100000000001    8.8602380000000007   -9.3576010000000007
O      14.4449149999999999    1.6622570000000001   -9.8198930000000004
O       9.0731610000000007    8.8966680000000000   -6.1765020000000002
O      13.3101439999999993    7.6007319999999998   -6.9870520000000003
O      13.7575540000000007    2.8333349999999999   -7.4841059999999997
H      16.2027420000000006    4.3209759999999999   -8.1089190000000002
H      16.0231600000000007    5.7523439999999999   -4.4318070000000001
H      14.0128540000000008    7.6874079999999996   -3.9456910000000001
H      11.2730639999999998    8.8912340000000007   -3.6537009999999999
H       9.9299079999999993    9.4797550000000008   -9.7365829999999995
H      16.1056430000000006    3.7371089999999998  -10.4068310000000004
H       7.7893710000000000   10.0001899999999999   -9.1552530000000001
H      12.4760760000000008    9.1755099999999992   -9.7358670000000007
H      14.6342359999999996    0.8024100000000000   -9.4119119999999992
H       9.2854690000000009    1.8104870000000000   -8.8585279999999997
H      10.6481670000000008    0.0661090000000000   -7.7919770000000002
O      11.6918849999999992    2.0873370000000002   -5.5735950000000001
C      10.4689239999999995    2.6499470000000001   -5.8362040000000004
C       9.3365969999999994    2.0474340000000000   -5.2758479999999999
C       8.0786660000000001    2.5953759999999999   -5.5129700000000001
C       7.9084630000000002    3.7437670000000001   -6.3119059999999996
C       9.0686090000000004    4.3405839999999998   -6.8463890000000003
C      10.3289670000000005    3.8066480000000000   -6.6183930000000002
C       6.5725790000000002    4.2963339999999999   -6.5074790000000000
C       6.2251310000000002    5.3219529999999997   -7.3101770000000004
C       4.8272950000000003    5.8617499999999998   -7.3039540000000001
O       3.9113099999999998    5.2403459999999997   -6.7608779999999999
O       4.6310330000000004    7.0337199999999998   -7.8852510000000002
H      12.3536680000000008    2.4947450000000000   -6.1668960000000004
H       9.4623449999999991    1.1573899999999999   -4.6586749999999997
H       7.1965690000000002    2.1282079999999999   -5.0698790000000002
H       8.9875310000000006    5.2638920000000002   -7.4164089999999998
H      11.2112780000000001    4.3054189999999997   -7.0202890000000000
H       5.7663450000000003    3.8509560000000000   -5.9146239999999999
H       6.9601199999999999    5.8181710000000004   -7.9435640000000003
