   94
 
H      12.3529400000000003    1.2478160000000000   -3.1758190000000002
O      14.1056170000000005    1.3568739999999999   -5.0621390000000002
H      14.6967560000000006    1.4962949999999999   -2.5423600000000000
H      13.8959700000000002   -0.6264260000000000   -3.4914440000000000
Si     13.7551220000000001    0.8550590000000000   -3.5064180000000000
O      13.7831489999999999    3.9747469999999998   -4.8274499999999998
O      15.9429820000000007    3.1364120000000000   -6.0275980000000002
Si     14.3646270000000005    2.7966060000000001   -5.7805150000000003
O      12.2495560000000001    6.1278449999999998   -4.9726860000000004
O      13.5476340000000004    5.5330300000000001   -2.7140230000000001
O      14.8120740000000009    6.5018130000000003   -4.9026220000000000
Si     13.6264219999999998    5.5183080000000002   -4.3250250000000001
O      10.2528720000000000    8.7483579999999996   -5.0720060000000000
O      12.9413029999999996    8.2129440000000002   -6.5559880000000001
Si     11.8209529999999994    7.0557030000000003   -6.2304250000000003
O       8.4983050000000002    7.5584819999999997   -3.3142950000000000
O       8.6320619999999995   10.1856749999999998   -3.6348880000000001
Si      8.6955629999999999    8.7461900000000004   -4.3964330000000000
H      14.0385600000000004    3.8780329999999998   -0.8241309999999999
H      11.8770799999999994    3.7134100000000001   -1.9465500000000000
H      12.3379539999999999    5.6077880000000002   -0.4623940000000000
Si     12.9240300000000001    4.6527130000000003   -1.4418940000000000
H      10.5860339999999997    6.1677450000000000   -2.6951930000000002
H       8.4333939999999998    5.6222070000000004   -1.6650419999999999
H       9.6421270000000003    7.6475700000000000   -1.0090220000000001
Si      9.3221469999999993    6.7198370000000001   -2.1336260000000000
H       7.3193010000000003    8.2269210000000008  -13.2902410000000000
H       8.0298809999999996    6.0984420000000004  -12.3354040000000005
H       9.2311359999999993    3.6040079999999999  -12.4810649999999992
Si      8.2567199999999996    7.5812109999999997  -12.3333759999999995
H      10.8503439999999998    2.8308399999999998  -14.1305829999999997
H       9.6797190000000004    7.8402640000000003  -12.7047779999999992
Si     10.6193779999999993    3.7921510000000000  -13.0204690000000003
H       4.4118719999999998    8.0269569999999995   -8.8660929999999993
H      10.7730999999999995    5.2054289999999996  -13.4681049999999995
O       7.9285059999999996    8.1589720000000003  -10.8128180000000000
Si      4.1329719999999996    8.9001180000000009   -7.6819360000000003
O      11.6961290000000009    3.4406750000000001  -11.8064149999999994
H       3.3891779999999998   10.1100530000000006   -8.1331539999999993
H       3.3438550000000000    8.1455839999999995   -6.6707440000000000
Si      8.7416350000000005    8.2891169999999992   -9.4038590000000006
O       5.5634519999999998    9.4009370000000008   -7.0127470000000001
O       9.6061119999999995    9.6820749999999993   -9.2901559999999996
Si     11.6706330000000005   -0.5028610000000000   -6.7870910000000002
Si     12.3311360000000008    4.0411849999999996  -10.4372360000000004
O       7.6428550000000000    8.2507219999999997   -8.2109229999999993
H      13.0113649999999996   -1.1479010000000001   -6.6948770000000000
O       9.7242099999999994    6.9679750000000000   -9.3116540000000008
O      13.9501170000000005    4.1927250000000003  -10.4758220000000009
Si      7.1655810000000004    9.2356610000000003   -6.9678709999999997
O      11.6837309999999999    5.5025060000000003  -10.1559279999999994
O      11.7486990000000002    0.8379730000000000   -7.7829449999999998
O       7.9045620000000003   10.6956190000000007   -7.0569280000000001
O      11.8381369999999997    3.0203549999999999   -9.2069349999999996
Si     11.3154199999999996    6.6800829999999998   -9.0962069999999997
Si     12.7798990000000003    1.9547810000000001   -8.3494530000000005
O      12.1391039999999997    8.0714830000000006   -9.3823969999999992
O      13.9519769999999994    1.3271690000000000   -9.3213550000000005
O       7.5691220000000001    8.5120020000000007   -5.5528899999999997
O      11.6009869999999999    6.1196640000000002   -7.5751080000000002
O      13.5299230000000001    2.8016220000000001   -7.1921749999999998
H      16.4863959999999992    2.5083810000000000   -6.5223069999999996
H      15.7365530000000007    6.2718800000000003   -4.7320300000000000
H      13.7867700000000006    8.1050970000000007   -6.0834700000000002
H       8.6291159999999998   10.9767419999999998   -4.1950260000000004
H      10.5657890000000005    9.5898120000000002   -9.4305140000000005
H      14.4826739999999994    3.3848460000000000  -10.5394659999999991
H       8.6258269999999992   10.7600859999999994   -7.7074410000000002
H      12.7640480000000007    8.3309709999999999   -8.6779240000000009
H      13.7325560000000007    0.5528630000000000   -9.8585630000000002
H      10.6720740000000003   -1.4274249999999999   -7.3908360000000002
H      11.2111739999999998   -0.0547640000000000   -5.4400709999999997
N       7.3688050000000000    5.3400840000000001   -5.2505400000000000
C       8.5350970000000004    4.7371410000000003   -4.9168770000000004
O      10.2839050000000007    7.6728360000000002   -6.0991350000000004
N       9.1926210000000008    4.1687510000000003   -5.9796709999999997
C      10.4312159999999992    3.4261080000000002   -5.7265579999999998
C       8.6955930000000006    4.2762039999999999   -7.2493040000000004
N       9.2154179999999997    3.8367870000000002   -8.4495740000000001
C       8.3587089999999993    4.1954490000000000   -9.4317209999999996
N       7.3057999999999996    4.8224140000000002   -8.9034519999999997
C       6.1549950000000004    5.3611060000000004   -9.6406130000000001
C       7.4922459999999997    4.8946480000000001   -7.5322769999999997
C       6.6831319999999996    5.4826050000000004   -6.4910769999999998
O       5.5927429999999996    6.0196290000000001   -6.5964710000000002
H       6.8940359999999998    5.8181570000000002   -4.4820440000000001
H      10.6567760000000007    3.5505719999999998   -4.6648779999999999
H      10.2887489999999993    2.3613200000000001   -5.9541440000000003
H      11.2496489999999998    3.8363710000000002   -6.3277390000000002
H       8.5181410000000000    4.0179720000000003  -10.4909339999999993
H       5.2452680000000003    4.8444570000000002   -9.3158069999999995
H       6.0573069999999998    6.4298770000000003   -9.4222549999999998
H       6.3266080000000002    5.2050729999999996  -10.7094740000000002
H      10.1505360000000007    3.4162469999999998   -8.6260809999999992
