  101
 
H      13.5701169999999998   -0.6523590000000000   -4.5375280000000000
O      15.2648510000000002    1.0426320000000000   -5.5597880000000002
H      15.3250229999999998    0.2587360000000000   -3.0898390000000000
H      15.9020189999999992   -1.3156650000000001   -4.8829209999999996
Si     14.9944190000000006   -0.2043370000000000   -4.4720670000000000
O      13.6049439999999997    2.9658240000000000   -4.7375460000000000
O      15.7556700000000003    3.6530269999999998   -6.1195950000000003
Si     14.5898350000000008    2.4753550000000000   -5.9453110000000002
O      11.7574159999999992    4.9108489999999998   -5.1024330000000004
O      12.6423590000000008    4.3593140000000004   -2.6704150000000002
O      14.2816589999999994    5.5667320000000000   -4.4658179999999996
Si     13.0753769999999996    4.4402499999999998   -4.2421230000000003
O       9.8954219999999999    6.6881180000000002   -5.8635010000000003
O      12.4348449999999993    7.4701250000000003   -5.6587180000000004
Si     11.4389990000000008    6.2022820000000003   -6.0669089999999999
O       8.7007510000000003    7.4405859999999997   -3.6317409999999999
O      10.2552330000000005    9.2345330000000008   -4.9965599999999997
Si      9.1914789999999993    7.9780850000000001   -5.1000690000000004
H      11.4148250000000004    4.5815149999999996   -0.4510390000000000
H      10.0405390000000008    4.4177410000000004   -2.4744940000000000
H      11.2778100000000006    6.4692930000000004   -2.0225149999999998
Si     11.2983940000000000    4.9804300000000001   -1.8836210000000000
H       8.3878039999999991    6.8546500000000004   -1.1856990000000001
H       7.2371840000000001    8.8514040000000005   -2.0172919999999999
H       9.6652529999999999    8.8798209999999997   -1.6885910000000000
Si      8.4927240000000008    8.0418360000000000   -2.0913480000000000
H       8.3009740000000001    8.4338829999999998  -13.3936329999999995
H       9.6876300000000004    6.7199720000000003  -12.3371510000000004
H      10.7344159999999995    4.4510389999999997  -13.7016860000000005
Si      9.4436850000000003    8.1910910000000001  -12.4586509999999997
H      12.9280919999999995    4.2830950000000003  -14.7844580000000008
H      10.6758389999999999    8.8548200000000001  -12.9898349999999994
Si     12.1866430000000001    4.7897249999999998  -13.5900859999999994
H       5.3293049999999997   10.4588219999999996   -9.5959690000000002
H      12.3519210000000008    6.2728979999999996  -13.4710180000000008
O       9.0415069999999993    8.8535509999999995  -10.9902549999999994
Si      4.8254950000000001   10.4575200000000006   -8.1867289999999997
O      12.8413889999999995    4.0188350000000002  -12.2563840000000006
H       4.6282059999999996   11.8623119999999993   -7.7079870000000001
H       3.5273450000000000    9.7190729999999999   -8.1086039999999997
Si      9.3724190000000007    8.5819569999999992   -9.4065490000000000
O       5.8958620000000002    9.6686569999999996   -7.1728220000000000
O      10.4639659999999992    9.6632280000000002   -8.7840070000000008
Si     14.5906280000000006   -0.9353170000000000   -8.8193420000000007
Si     12.9323739999999994    4.3366360000000004  -10.6557549999999992
O       7.9765490000000003    8.7729300000000006   -8.5958980000000000
H      16.0398589999999999   -1.2472570000000001   -9.0466110000000004
O       9.9522189999999995    7.0422469999999997   -9.2324509999999993
O      14.2346930000000000    5.3036979999999998  -10.2809740000000005
Si      7.5170519999999996    9.4719460000000009   -7.1741479999999997
O      11.5866769999999999    5.1577679999999999  -10.2024319999999999
O      14.3372840000000004    0.6202480000000000   -9.3970979999999997
O       8.2085240000000006   10.9564920000000008   -6.9776449999999999
O      13.0602769999999992    2.8938700000000002   -9.8755900000000008
Si     11.4276789999999995    6.3747680000000004   -9.0985350000000000
Si     14.1698179999999994    2.1656860000000000   -8.9244369999999993
O      12.5132999999999992    7.5926780000000003   -9.4038649999999997
O      15.6465750000000003    2.9693139999999998   -9.1152130000000007
O       7.8719419999999998    8.4355440000000002   -5.9431260000000004
O      11.6713629999999995    5.7211610000000004   -7.6127989999999999
O      13.7555160000000001    2.3368210000000000   -7.3575359999999996
H      16.1319890000000008    3.6836940000000000   -7.0190359999999998
H      15.0380739999999999    5.1969859999999999   -4.9682990000000000
H      13.2841319999999996    7.1653399999999996   -5.2755729999999996
H      11.1860289999999996    8.9426089999999991   -5.0823159999999996
H      11.3889610000000001    9.3888900000000000   -8.9262409999999992
H      15.0114110000000007    4.7961590000000003   -9.9775650000000002
H       9.1781380000000006   10.9528739999999996   -7.0701809999999998
H      13.4141399999999997    7.2754919999999998   -9.5977150000000009
H      16.2848499999999987    2.4799810000000000   -9.6593789999999995
H      13.7459629999999997   -1.8516969999999999   -9.6422030000000003
H      14.2612159999999992   -1.0396190000000001   -7.3724230000000004
C       9.5666679999999999    2.6733799999999999   -7.7907299999999999
C      10.2211459999999992    1.5747840000000000   -8.3806519999999995
C      10.8987090000000002    0.6466220000000000   -7.5868120000000001
O      11.5247379999999993   -0.4570450000000000   -8.1383600000000005
C      10.9773560000000003    0.7982970000000000   -6.2026040000000000
C      10.3440349999999999    1.9050830000000001   -5.6213080000000000
O      10.4453910000000008    2.0289180000000000   -4.2571979999999998
C       9.6442110000000003    2.8314189999999999   -6.3949170000000004
C       8.8085430000000002    3.5750780000000000   -8.6528290000000005
C       7.9309510000000003    4.5193890000000003   -8.2367519999999992
C       7.0939030000000001    5.3680430000000001   -9.0734069999999996
C       6.0194669999999997    6.0595010000000000   -8.4784450000000007
C       5.1474979999999997    6.8432519999999997   -9.2232050000000001
C       5.3518260000000000    6.9824529999999996  -10.6014590000000002
O       4.4765439999999996    7.7758130000000003  -11.2970869999999994
C       6.4222229999999998    6.3151619999999999  -11.2191390000000002
C       7.2766869999999999    5.5196949999999996  -10.4633769999999995
H      10.1818249999999999    1.4415220000000000   -9.4640039999999992
H      11.3437289999999997   -0.4576500000000000   -9.0963600000000007
H      11.4943779999999993    0.0632780000000000   -5.5879909999999997
H       9.9939879999999999    2.8502770000000002   -3.9886759999999999
H       9.1657980000000006    3.6808060000000000   -5.9042029999999999
H       8.9427479999999999    3.4052069999999999   -9.7251019999999997
H       7.7720940000000001    4.6519009999999996   -7.1625600000000000
H       5.8642709999999996    5.9697730000000000   -7.4014020000000000
H       4.3021269999999996    7.3440060000000003   -8.7551229999999993
H       4.7787220000000001    7.8407970000000002  -12.2191670000000006
H       6.5811560000000000    6.4240149999999998  -12.2948210000000007
H       8.1141780000000008    5.0285640000000003  -10.9602920000000008
