   93
 
H      12.8087769999999992    0.1655410000000000   -4.7330959999999997
O      15.0437840000000005    1.2974550000000000   -5.4358399999999998
H      14.8079339999999995   -0.2136160000000000   -3.3589479999999998
H      14.6400530000000000   -1.2194910000000001   -5.5920230000000002
Si     14.2949029999999997   -0.0326680000000000   -4.7503450000000003
O      13.7603340000000003    3.5238369999999999   -4.7483639999999996
O      16.0811129999999984    3.7414010000000002   -6.0135719999999999
Si     14.7029010000000007    2.8286240000000000   -5.8853929999999997
O      12.2158429999999996    5.7085860000000004   -5.0681940000000001
O      13.0895639999999993    5.0036009999999997   -2.6563509999999999
O      14.8220930000000006    6.0062939999999996   -4.4969979999999996
Si     13.4783729999999995    5.0690600000000003   -4.2337899999999999
O      10.6009100000000007    7.6198920000000001   -6.0943059999999996
O      13.2147849999999991    8.0777079999999994   -5.9080380000000003
Si     12.0623550000000002    6.9241310000000000   -6.1722599999999996
O       9.5113269999999996    7.8343239999999996   -3.6748349999999999
O      10.4671990000000008   10.0544870000000000   -4.9442110000000001
Si      9.7054329999999993    8.5979910000000004   -5.1138219999999999
H      11.9171189999999996    4.6767190000000003   -0.4257700000000000
H      10.5081340000000001    4.7792729999999999   -2.4389490000000000
H      11.5846479999999996    6.8140390000000002   -1.5787460000000000
Si     11.7143969999999999    5.3351610000000003   -1.7528300000000001
H       8.6166809999999998    6.8234040000000000   -1.5153630000000000
H       7.2668100000000004    8.5705390000000001   -2.5783570000000000
H       9.3598130000000008    9.1498699999999999   -1.4402299999999999
Si      8.6579169999999994    8.1163580000000000   -2.2668469999999998
H       8.0275750000000006    7.9667550000000000  -13.3901950000000003
H       9.4712580000000006    6.3118610000000004  -12.2948880000000003
H      11.1136309999999998    4.3403840000000002  -13.5913210000000007
Si      9.1668839999999996    7.7702340000000003  -12.4436339999999994
H      13.2361059999999995    4.5984999999999996  -14.7932469999999991
H      10.3867619999999992    8.4715450000000008  -12.9638740000000006
Si     12.4704200000000007    4.9671469999999998  -13.5646609999999992
H       4.9268029999999996    9.6533870000000004   -9.3280239999999992
H      12.3452300000000008    6.4542020000000004  -13.4590499999999995
O       8.7108779999999992    8.4285490000000003  -10.9817250000000008
Si      4.5676090000000000    9.4611990000000006   -7.8862019999999999
O      13.3449050000000007    4.3644809999999996  -12.2666009999999996
H       3.8637570000000001   10.6774869999999993   -7.3719570000000001
H       3.6818000000000000    8.2651380000000003   -7.7361199999999997
Si      9.2815580000000004    8.3787780000000005   -9.4448469999999993
O       5.9328040000000000    9.1912479999999999   -6.9610240000000001
O      10.2133009999999995    9.7035999999999998   -9.0878689999999995
Si     13.3713099999999994   -0.4991110000000000   -8.8360439999999993
Si     13.4101619999999997    4.5989440000000004  -10.6545590000000008
O       8.0146010000000008    8.3730740000000008   -8.4251869999999993
H      14.1912230000000008   -1.7232840000000000   -8.6002329999999994
O      10.1678379999999997    6.9923050000000000   -9.2915270000000003
O      14.7008519999999994    5.5316179999999999  -10.1965100000000000
Si      7.5418799999999999    9.3528769999999994   -7.1761299999999997
O      12.0563830000000003    5.3710670000000000  -10.1600660000000005
O      14.4466929999999998    0.7723160000000000   -9.0579830000000001
O       7.8730770000000003   10.9315460000000009   -7.5118590000000003
O      13.4964630000000003    3.0992959999999998   -9.9651490000000003
Si     11.7519950000000009    6.6446280000000000   -9.1703039999999998
Si     14.4352750000000007    2.3890400000000001   -8.8355139999999999
O      12.5545050000000007    8.0157109999999996   -9.6594610000000003
O      16.0133749999999999    2.9495640000000001   -8.9520540000000004
O       8.2385540000000006    8.8520520000000005   -5.7769969999999997
O      12.2091899999999995    6.2180799999999996   -7.6538160000000000
O      13.9093990000000005    2.8103470000000002   -7.3378100000000002
H      16.4817630000000008    3.6968570000000001   -6.9022160000000001
H      15.5494789999999998    5.5116790000000000   -4.9273340000000001
H      14.0151819999999994    7.7105519999999999   -5.4832080000000003
H      11.4372000000000007   10.0066000000000006   -4.9811050000000003
H      11.1583000000000006    9.5753400000000006   -9.2981370000000005
H      15.5177189999999996    5.0350089999999996  -10.0162600000000008
H       8.7665249999999997   11.0778070000000000   -7.8742729999999996
H      13.5224519999999995    7.9727100000000002   -9.5918820000000000
H      16.6182990000000004    2.3421609999999999   -9.4093669999999996
H      12.5275979999999993   -0.6482840000000000  -10.0600149999999999
H      12.5047999999999995   -0.2127860000000000   -7.6480870000000003
N       6.1740550000000001    4.4371099999999997   -5.9854180000000001
C       5.2366450000000002    3.4289170000000002   -5.7291660000000002
O       4.0376139999999996    3.6717100000000000   -5.6322720000000004
N       5.7724089999999997    2.1402320000000001   -5.6002729999999996
C       4.8878630000000003    1.0145750000000000   -5.3047730000000000
C       7.1355880000000003    1.9551270000000001   -5.7081780000000002
N       7.7911750000000000    0.7658940000000000   -5.5933650000000004
C       9.0760649999999998    1.0991970000000000   -5.7598159999999998
N       9.2713280000000005    2.4277129999999998   -5.9813580000000002
C      10.5474139999999998    3.1289820000000002   -6.0950360000000003
C       8.0120039999999992    3.0068940000000000   -5.9508260000000002
C       7.5818349999999999    4.3680839999999996   -6.1164259999999997
O       8.2579930000000008    5.3708689999999999   -6.3370930000000003
H       5.7624100000000000    5.3653690000000003   -6.0848779999999998
H       3.8679209999999999    1.4065630000000000   -5.2723699999999996
H       4.9799210000000000    0.2504270000000000   -6.0873530000000002
H       5.1561329999999996    0.5683330000000000   -4.3384660000000004
H       9.9051109999999998    0.3967600000000000   -5.7278490000000000
H      10.6088590000000007    3.6769020000000001   -7.0433380000000003
H      10.6445349999999994    3.8375830000000000   -5.2666670000000000
H      11.3512579999999996    2.3871810000000000   -6.0488140000000001
