   93
 
H      13.2659310000000001   -0.0246140000000000   -4.7492010000000002
O      15.3065420000000003    1.2957540000000001   -5.6925590000000001
H      15.4309130000000003   -0.2210780000000000   -3.6130830000000000
H      15.1019559999999995   -1.2458089999999999   -5.8184709999999997
Si     14.7499839999999995   -0.0927070000000000   -4.9365139999999998
O      13.7419019999999996    3.2887119999999999   -4.8258489999999998
O      15.9970580000000009    3.8912320000000000   -6.0808900000000001
Si     14.7492429999999999    2.7961220000000000   -6.0181129999999996
O      11.9868489999999994    5.2708329999999997   -5.2617360000000000
O      12.7987160000000006    4.6761790000000003   -2.7704659999999999
O      14.5011969999999994    5.8737420000000000   -4.4954390000000002
Si     13.2579919999999998    4.7826890000000004   -4.3288789999999997
O      10.1601520000000001    7.1203900000000004   -6.0020670000000003
O      12.6129210000000000    7.9206479999999999   -5.3710930000000001
Si     11.7314559999999997    6.6938670000000000   -6.0637670000000004
O       9.0244509999999991    7.5461660000000004   -3.6424379999999998
O      10.2229709999999994    9.6261729999999996   -4.9562200000000001
Si      9.3373019999999993    8.2407310000000003   -5.0967500000000001
H      11.8088870000000004    4.9777550000000002   -0.4497450000000000
H      10.2399380000000004    4.7952820000000003   -2.3354949999999999
H      11.5712609999999998    6.8358670000000004   -2.0327660000000001
Si     11.5478539999999992    5.3486390000000004   -1.8727030000000000
H       8.6358969999999999    6.8692200000000003   -1.2256560000000001
H       7.3076049999999997    8.7351229999999997   -2.0894780000000002
H       9.6943590000000004    9.0368919999999999   -1.6183339999999999
Si      8.6524129999999992    8.0794960000000007   -2.1064729999999998
H       7.8102309999999999    7.7625000000000002  -13.3640390000000000
H       9.3585779999999996    6.2326079999999999  -12.2349879999999995
H      11.1580159999999999    4.4464779999999999  -13.4295829999999992
Si      9.0151520000000005    7.6686100000000001  -12.4856110000000005
H      13.1635760000000008    4.7934799999999997  -14.7934819999999991
H      10.1750550000000004    8.3518089999999994  -13.1407190000000007
Si     12.4684449999999991    5.1633639999999996  -13.5245499999999996
H       5.0386110000000004    9.7205829999999995   -9.6196040000000007
H      12.2446409999999997    6.6409969999999996  -13.4686880000000002
O       8.6488580000000006    8.4354010000000006  -11.0509529999999998
Si      4.5355879999999997    9.6473700000000004   -8.2105160000000001
O      13.4739769999999996    4.6862310000000003  -12.2753969999999999
H       3.9777900000000002   10.9738150000000001   -7.8011590000000002
H       3.4753530000000001    8.5988419999999994   -8.1005540000000007
Si      9.2112510000000007    8.4540129999999998   -9.5136889999999994
O       5.7668340000000002    9.2203440000000008   -7.1646429999999999
O      10.0491759999999992    9.8442570000000007   -9.1681000000000008
Si     13.3916760000000004   -0.4395100000000000   -8.8906519999999993
Si     13.4958419999999997    4.8098679999999998  -10.6464049999999997
O       7.9359320000000002    8.3908380000000005   -8.5026580000000003
H      14.2887219999999999   -1.6126330000000000   -8.6620259999999991
O      10.1757360000000006    7.1299250000000001   -9.2998519999999996
O      14.7958879999999997    5.6849780000000001  -10.0973469999999992
Si      7.3961360000000003    9.2852739999999994   -7.2186260000000004
O      12.1462749999999993    5.5908899999999999  -10.1539000000000001
O      14.3914320000000000    0.8565280000000000   -9.2822180000000003
O       7.8699070000000004   10.8556740000000005   -7.3620660000000004
O      13.5433260000000004    3.2686320000000002  -10.0603859999999994
Si     11.7681459999999998    6.8247359999999997   -9.1437589999999993
Si     14.4429079999999992    2.4563730000000001   -8.9713910000000006
O      12.5505010000000006    8.2239070000000005   -9.5954619999999995
O      16.0370649999999983    2.9844960000000000   -9.0488070000000000
O       7.9181340000000002    8.5820539999999994   -5.8246240000000000
O      12.1967759999999998    6.4210120000000002   -7.6131900000000003
O      13.9282489999999992    2.8084349999999998   -7.4507539999999999
H      16.4647480000000002    3.8903500000000002   -6.9362959999999996
H      15.2541399999999996    5.5117880000000001   -5.0067899999999996
H      13.4874810000000007    7.6213259999999998   -5.0508240000000004
H      11.1813359999999999    9.4512219999999996   -4.8881850000000000
H      11.0046929999999996    9.7885779999999993   -9.3542600000000000
H      15.5896340000000002    5.1484439999999996   -9.9295969999999993
H       8.7586589999999998   10.9588149999999995   -7.7504720000000002
H      13.5204509999999996    8.1798350000000006   -9.5630819999999996
H      16.6428960000000004    2.3753280000000001   -9.5008529999999993
H      12.4637619999999991   -0.6976790000000000  -10.0319319999999994
H      12.6222770000000004   -0.1218530000000000   -7.6479900000000001
O      10.8260439999999996    1.8412630000000001   -5.9397570000000002
C      10.0472719999999995    1.5910550000000001   -7.0509990000000000
C       9.1909279999999995    0.5086980000000000   -7.1961930000000001
C       8.4236240000000002    0.3418810000000000   -8.3730130000000003
C       8.5835010000000000    1.2846340000000001   -9.4101730000000003
C       9.4510679999999994    2.3620860000000001   -9.2733899999999991
C      10.1796340000000001    2.5359680000000000   -8.0906380000000002
O      11.0086549999999992    3.5985390000000002   -7.9652580000000004
C       7.4953580000000004   -0.7737900000000000   -8.4433500000000006
C       6.6019490000000003   -1.0422810000000000   -9.4247119999999995
C       5.7196660000000001   -2.2094749999999999   -9.3227039999999999
O       5.7079860000000000   -3.0508050000000000   -8.4345850000000002
O       4.8523370000000003   -2.2665039999999999  -10.3887979999999995
H      10.5889959999999999    1.2237300000000000   -5.2278370000000001
H       9.0903100000000006   -0.2167680000000000   -6.3836510000000004
H       8.0115829999999999    1.1808989999999999  -10.3324710000000000
H       9.5720939999999999    3.0970949999999999  -10.0697410000000005
H      11.4324270000000006    3.5672899999999998   -7.0845399999999996
H       7.5059389999999997   -1.4696520000000000   -7.5971789999999997
H       6.4813330000000002   -0.4102140000000000  -10.3044270000000004
H       4.3056200000000002   -3.0633550000000001  -10.2330880000000004
