  101
 
H      14.4233030000000007   -0.4463680000000000   -4.7110849999999997
O      15.6559659999999994    1.8025709999999999   -5.2077980000000004
H      16.7822390000000006   -0.2040050000000000   -4.1314700000000002
H      16.1044820000000009   -0.3984940000000000   -6.4788079999999999
Si     15.7313980000000004    0.1446340000000000   -5.1356180000000000
O      13.9256259999999994    3.7359040000000001   -4.5436600000000000
O      16.0668959999999998    4.3606889999999998   -5.9316909999999998
Si     14.9229520000000004    3.1710720000000001   -5.7006110000000003
O      12.0504020000000001    5.6476410000000001   -4.8679040000000002
O      13.0965849999999993    5.1969240000000001   -2.4683609999999998
O      14.5995860000000004    6.3536729999999997   -4.4143920000000003
Si     13.4231420000000004    5.2294939999999999   -4.0655359999999998
O      10.1751780000000007    7.3221129999999999   -5.8829729999999998
O      12.6933249999999997    8.1291010000000004   -5.7363809999999997
Si     11.7151979999999991    6.8069600000000001   -5.9863070000000000
O       9.1194570000000006    7.8807619999999998   -3.5131470000000000
O      10.3531689999999994    9.8577820000000003   -4.9619119999999999
Si      9.4142390000000002    8.4981209999999994   -5.0037229999999999
H      12.0467080000000006    5.2595359999999998   -0.1566030000000000
H      10.5192379999999996    5.0350429999999999   -2.0686209999999998
H      11.6413209999999996    7.1706459999999996   -1.6310220000000000
Si     11.7681970000000007    5.6811420000000004   -1.5623069999999999
H       8.6816309999999994    7.1912469999999997   -1.1090830000000000
H       7.2956909999999997    8.9862079999999995   -2.0306229999999998
H       9.6464269999999992    9.4094160000000002   -1.4783059999999999
Si      8.6720140000000008    8.3971289999999996   -1.9953959999999999
H       7.8754530000000003    7.9293339999999999  -13.3075200000000002
H       9.2496670000000005    6.2093540000000003  -12.2284459999999999
H      10.9610230000000008    4.2496549999999997  -13.4168740000000000
Si      9.0016739999999995    7.6801320000000004  -12.3595120000000005
H      13.1069049999999994    4.5219680000000002  -14.5712790000000005
H      10.2449530000000006    8.3470630000000003  -12.8633089999999992
Si     12.3278649999999992    4.8498840000000003  -13.3387510000000002
H       5.1539770000000003    9.8462110000000003   -9.5557189999999999
H      12.2239740000000001    6.3340120000000004  -13.1751299999999993
O       8.5633289999999995    8.3257110000000001  -10.8850510000000007
Si      4.5970540000000000    9.7714520000000000   -8.1671580000000006
O      13.1626680000000000    4.1821060000000001  -12.0510429999999999
H       3.9756999999999998   11.0804860000000005   -7.7952919999999999
H       3.5661149999999999    8.6890710000000002   -8.0941620000000007
Si      9.1553570000000004    8.2813660000000002   -9.3551219999999997
O       5.7951119999999996    9.4041510000000006   -7.0619139999999998
O      10.1329100000000007    9.5798500000000004   -9.0191579999999991
Si     13.7138220000000004   -0.5014980000000000   -8.7650349999999992
Si     13.2571220000000007    4.4706799999999998  -10.4464079999999999
O       7.8819470000000003    8.3225099999999994   -8.3329459999999997
H      14.6251440000000006   -1.6848620000000001   -8.7258689999999994
O       9.9855490000000007    6.8672300000000002   -9.1655979999999992
O      14.4954330000000002    5.5150530000000000  -10.0657010000000007
Si      7.4275169999999999    9.3940579999999994   -7.1521970000000001
O      11.8670249999999999    5.1757450000000000   -9.9416220000000006
O      14.7127250000000007    0.8508180000000000   -8.7463660000000001
O       7.9375520000000002   10.9191369999999992   -7.5034619999999999
O      13.4912089999999996    3.0150269999999999   -9.7090999999999994
Si     11.5599869999999996    6.4844489999999997   -8.9982910000000000
Si     14.5582449999999994    2.4667430000000001   -8.5996450000000006
O      12.4079490000000003    7.8153119999999996   -9.5340140000000009
O      16.0623299999999993    3.1690990000000001   -8.8589490000000009
O       7.9776740000000004    8.8520900000000005   -5.7004440000000001
O      11.9684080000000002    6.1187899999999997   -7.4556160000000000
O      14.0889830000000007    2.9363920000000001   -7.1056660000000003
H      16.5765729999999998    4.2722889999999998   -6.7561489999999997
H      15.3490810000000000    5.9656479999999998   -4.9129360000000002
H      13.5523509999999998    7.8706959999999997   -5.3397600000000001
H      11.3019250000000007    9.6501750000000008   -5.0738830000000004
H      11.0785070000000001    9.3962330000000005   -9.1881500000000003
H      15.3284870000000009    5.0734849999999998   -9.8203160000000000
H       8.8733649999999997   10.9706869999999999   -7.7726100000000002
H      13.3679810000000003    7.6818200000000001   -9.6086860000000005
H      16.6747960000000006    2.6163720000000001   -9.3719059999999992
H      12.9058010000000003   -0.5008430000000000  -10.0224810000000009
H      12.8233999999999995   -0.4875850000000000   -7.5663400000000003
C       8.6211730000000006    0.8106810000000000   -6.0176429999999996
C       8.3833219999999997    2.1057389999999998   -6.5178200000000004
C       9.4337789999999995    3.0239020000000001   -6.6275519999999997
O       9.2649930000000005    4.2922760000000002   -7.1169779999999996
C      10.7299480000000003    2.6831870000000002   -6.2309330000000003
C      10.9515820000000001    1.4092039999999999   -5.7012790000000004
O      12.2343309999999992    1.1204680000000000   -5.2858419999999997
C       9.9214369999999992    0.4751690000000000   -5.5913480000000000
C       7.5124849999999999   -0.1409170000000000   -5.9792969999999999
C       7.6198530000000000   -1.4812770000000000   -5.8143110000000000
C       6.5387639999999996   -2.4587020000000002   -5.7917269999999998
C       6.8586850000000004   -3.8337080000000001   -5.7545770000000003
C       5.8788380000000000   -4.8205340000000003   -5.7538850000000004
C       4.5286739999999996   -4.4503069999999996   -5.7894699999999997
O       3.5940910000000001   -5.4548360000000002   -5.7978030000000000
C       4.1803569999999999   -3.0907110000000002   -5.8133499999999998
C       5.1704749999999997   -2.1147779999999998   -5.8124500000000001
H       7.3768799999999999    2.3820630000000000   -6.8412829999999998
H       8.3280829999999995    4.4413359999999997   -7.3290020000000000
H      11.5426169999999999    3.3972349999999998   -6.3202040000000004
H      12.2308210000000006    0.2379970000000000   -4.8783560000000001
H      10.1280669999999997   -0.5021810000000000   -5.1514749999999996
H       6.5235420000000000    0.2994640000000000   -6.1401550000000000
H       8.6201469999999993   -1.9149570000000000   -5.7155519999999997
H       7.9102740000000002   -4.1282470000000000   -5.7326589999999999
H       6.1405120000000002   -5.8784460000000003   -5.7290630000000000
H       2.7054969999999998   -5.0574240000000001   -5.8245430000000002
H       3.1265250000000000   -2.8006000000000002   -5.8327570000000000
H       4.8679189999999997   -1.0669839999999999   -5.8231890000000002
