   92
 
H      13.4074620000000007   -0.4065660000000000   -4.9519620000000000
O      15.3820990000000002    1.2333130000000001   -5.3763519999999998
H      15.2000410000000006   -0.2354620000000000   -3.2695210000000001
H      15.6428659999999997   -1.3047420000000001   -5.4325200000000002
Si     14.8752669999999991   -0.2329390000000000   -4.7279000000000000
O      13.5443339999999992    3.1360679999999999   -4.9257619999999998
O      15.8453700000000008    3.7997920000000001   -6.0961569999999998
Si     14.7087310000000002    2.6030350000000002   -5.9351510000000003
O      11.7956430000000001    5.1989390000000002   -5.0793650000000001
O      12.7002170000000003    4.3810750000000001   -2.7265880000000000
O      14.3605009999999993    5.6714549999999999   -4.4549839999999996
Si     13.1021450000000002    4.5959120000000002   -4.2879090000000000
O      10.0849949999999993    7.0964660000000004   -5.9755330000000004
O      12.6515670000000000    7.7117550000000001   -5.6306539999999998
Si     11.5997299999999992    6.5035330000000000   -6.0616519999999996
O       8.9223060000000007    7.6053480000000002   -3.6510080000000000
O      10.4614290000000008    9.5268149999999991   -4.8433690000000000
Si      9.3869220000000002    8.2985330000000008   -5.0573870000000003
H      11.7974470000000000    4.7427650000000003   -0.3767000000000000
H      10.1561959999999996    4.5468940000000000   -2.2008930000000002
H      11.5213699999999992    6.5732450000000000   -1.9855200000000000
Si     11.4865399999999998    5.0887580000000003   -1.7954770000000000
H       8.5170929999999991    6.7743830000000003   -1.2835160000000001
H       7.2770780000000004    8.7593239999999994   -2.0055689999999999
H       9.6769099999999995    8.9135010000000001   -1.5350429999999999
Si      8.5875489999999992    8.0405689999999996   -2.0769240000000000
H       7.7193149999999999    7.7540789999999999  -13.4045959999999997
H       9.1922820000000005    6.0916949999999996  -12.3582570000000000
H      11.0278650000000003    4.3447630000000004  -13.5944149999999997
Si      8.8951010000000004    7.5507220000000004  -12.5075550000000000
H      13.1718930000000007    4.7423489999999999  -14.7223790000000001
H      10.0981419999999993    8.2416479999999996  -13.0767520000000008
Si     12.3770000000000007    4.9743630000000003  -13.4787680000000005
H       5.3345900000000004   10.1202249999999996   -9.6848270000000003
H      12.2400289999999998    6.4415810000000002  -13.2172440000000009
O       8.5031970000000001    8.2157710000000002  -11.0280199999999997
Si      4.8203730000000000   10.1855659999999997   -8.2800379999999993
O      13.2262789999999999    4.2449599999999998  -12.2262219999999999
H       4.3668909999999999   11.5758320000000001   -7.9623100000000004
H       3.6705269999999999    9.2395209999999999   -8.1182390000000009
Si      9.1712480000000003    8.2496170000000006   -9.5357389999999995
O       5.9989059999999998    9.7356409999999993   -7.1900620000000002
O      10.2096169999999997    9.5298680000000004   -9.3325469999999999
Si     14.2725760000000008   -0.8339880000000000   -9.2851970000000001
Si     13.2902979999999999    4.4587640000000004  -10.6126909999999999
O       7.9692819999999998    8.3848210000000005   -8.4463390000000000
H      15.3209800000000005   -1.7456240000000001   -9.8324259999999999
O      10.0010560000000002    6.8324680000000004   -9.3102579999999993
O      14.5115040000000004    5.4852720000000001  -10.1536229999999996
Si      7.6096199999999996    9.4911989999999999   -7.2612139999999998
O      11.8907959999999999    5.1298990000000000  -10.0954270000000008
O      14.8987239999999996    0.7241690000000000   -9.4402059999999999
O       8.3373489999999997   10.9323320000000006   -7.5781770000000002
O      13.5060350000000007    2.9727709999999998   -9.9301750000000002
Si     11.5632970000000004    6.4173369999999998   -9.1262819999999998
Si     14.5949039999999997    2.2449490000000001   -8.9648000000000003
O      12.4683630000000001    7.7436369999999997   -9.5569369999999996
O      16.0350900000000003    3.1089129999999998   -8.9896360000000008
O       8.0556490000000007    8.8533139999999992   -5.8132989999999998
O      11.8867250000000002    5.9543549999999996   -7.5857900000000003
O      14.0167260000000002    2.3013520000000001   -7.4201740000000003
H      16.2652029999999996    3.8149210000000000   -6.9780439999999997
H      15.1143160000000005    5.3008709999999999   -4.9598310000000003
H      13.4687590000000004    7.3537249999999998   -5.2242170000000003
H      11.3910110000000007    9.2384360000000001   -4.9286390000000004
H      11.1513659999999994    9.3086260000000003   -9.4650630000000007
H      15.3489020000000007    5.0440480000000001   -9.9249720000000003
H       9.2134319999999992   10.8402709999999995   -8.0018370000000001
H      13.4170529999999992    7.5565879999999996   -9.6750319999999999
H      16.7836320000000008    2.6114359999999999   -9.3593229999999998
H      13.0075730000000007   -0.9371260000000000  -10.0679710000000000
H      14.0346810000000009   -1.1149870000000000   -7.8390019999999998
O      11.6251949999999997    0.6952270000000000   -7.2500369999999998
C      10.4786470000000005    1.4400210000000000   -7.1771070000000003
C       9.2660640000000001    0.7619850000000000   -6.9926820000000003
C       8.0843650000000000    1.4884310000000001   -6.8972579999999999
C       8.0749829999999996    2.8982090000000000   -6.9732710000000004
C       9.3065540000000002    3.5543879999999999   -7.1824050000000002
C      10.4922109999999993    2.8413970000000002   -7.2851220000000003
C       6.8161779999999998    3.6069399999999998   -6.8247739999999997
C       6.6207229999999999    4.9410530000000001   -6.7202510000000002
C       5.2555690000000004    5.4619819999999999   -6.5668579999999999
O       4.2156950000000002    4.8144169999999997   -6.5527160000000002
O       5.2664320000000000    6.8241339999999999   -6.4302419999999998
H      12.3868189999999991    1.3114969999999999   -7.2851390000000000
H       9.2706079999999993   -0.3259090000000000   -6.9194440000000004
H       7.1413739999999999    0.9600600000000000   -6.7436290000000003
H       9.3269590000000004    4.6399949999999999   -7.2751299999999999
H      11.4328850000000006    3.3656839999999999   -7.4530919999999998
H       5.9157570000000002    2.9854639999999999   -6.7754870000000000
H       7.4269379999999998    5.6751180000000003   -6.7296279999999999
H       4.3293900000000001    7.0925070000000003   -6.3478079999999997
