   93
 
H      13.1004889999999996   -0.4019230000000000   -4.9206380000000003
O      15.1692760000000000    1.0490569999999999   -5.5466959999999998
H      14.9671959999999995   -0.2694690000000000   -3.3336969999999999
H      15.2311090000000000   -1.4949340000000000   -5.4473599999999998
Si     14.5891800000000007   -0.3240050000000000   -4.7779119999999997
O      13.5446349999999995    3.0600990000000001   -4.8552960000000001
O      15.8630929999999992    3.6290249999999999   -6.0324479999999996
Si     14.6229800000000001    2.5281850000000001   -5.9616140000000000
O      11.8997659999999996    5.1555479999999996   -5.2444449999999998
O      12.5900169999999996    4.4143710000000000   -2.7762739999999999
O      14.4161629999999992    5.5891440000000001   -4.3957449999999998
Si     13.1116940000000000    4.5613419999999998   -4.3105549999999999
O      10.1768780000000003    7.1013500000000001   -5.9941700000000004
O      12.6570020000000003    7.7577590000000001   -5.3535779999999997
Si     11.7181870000000004    6.5793900000000001   -6.0583010000000002
O       8.9839769999999994    7.6215430000000000   -3.6922560000000000
O      10.3885590000000008    9.6039750000000002   -4.9610620000000001
Si      9.4130040000000008    8.2844350000000002   -5.1272019999999996
H      11.5813539999999993    4.8518429999999997   -0.4826790000000000
H      10.0354080000000003    4.7109639999999997   -2.3936000000000002
H      11.4886389999999992    6.6700549999999996   -2.1254510000000000
Si     11.3674859999999995    5.1921460000000002   -1.9209650000000000
H       8.5280880000000003    6.9018030000000001   -1.3015180000000000
H       7.2784810000000002    8.8302340000000008   -2.1480779999999999
H       9.6638769999999994    9.0428460000000008   -1.6238210000000000
Si      8.6011579999999999    8.1307770000000001   -2.1526060000000000
H       7.6205230000000004    7.6959720000000003  -12.9863060000000008
H       9.2647329999999997    6.2621909999999996  -11.8702079999999999
H      10.9594989999999992    4.6508390000000004  -13.4701450000000005
Si      8.9758370000000003    7.6467599999999996  -12.3600610000000000
H      13.0393709999999992    4.7287499999999998  -14.7684080000000009
H      10.0121749999999992    8.0521419999999999  -13.3619100000000000
Si     12.3683709999999998    5.1483230000000004  -13.5015959999999993
H       5.3415949999999999   10.1523979999999998   -9.7022910000000007
H      12.3870939999999994    6.6390789999999997  -13.3733740000000001
O       9.0027010000000001    8.7362610000000007  -11.0923459999999992
Si      4.7752059999999998   10.0410140000000006   -8.3201680000000007
O      13.2411919999999999    4.4499529999999998  -12.2492210000000004
H       4.2246420000000002   11.3628149999999994   -7.8872150000000003
H       3.6968040000000002    9.0060369999999992   -8.2898440000000004
Si      9.4512180000000008    8.7078159999999993   -9.5162019999999998
O       5.9576640000000003    9.5622410000000002   -7.2399959999999997
O      10.3876770000000000   10.0058740000000004   -9.0974240000000002
Si     13.9423899999999996   -0.7100109999999999   -9.1739230000000003
Si     13.3431400000000000    4.6941689999999996  -10.6395459999999993
O       8.1067280000000004    8.7684160000000002   -8.5984700000000007
H      15.0485109999999995   -1.6828449999999999   -9.4148929999999993
O      10.2547619999999995    7.2934140000000003   -9.2368939999999995
O      14.6708660000000002    5.5897860000000001  -10.2129650000000005
Si      7.5872400000000004    9.5650519999999997   -7.2450919999999996
O      12.0198950000000000    5.5068250000000001  -10.1328329999999998
O      14.5587470000000003    0.8161740000000000   -9.4963940000000004
O       8.1180310000000002   11.1211839999999995   -7.2350060000000003
O      13.4085859999999997    3.2033429999999998   -9.9303059999999999
Si     11.7911330000000003    6.7825819999999997   -9.1142620000000001
Si     14.4274100000000001    2.3565420000000001   -8.9861799999999992
O      12.7347880000000000    8.0722190000000005   -9.5666159999999998
O      15.9497429999999998    3.0629569999999999   -9.0252649999999992
O       8.0524789999999999    8.7202029999999997   -5.9142089999999996
O      12.1935850000000006    6.2949390000000003   -7.6006850000000004
O      13.8843239999999994    2.4359940000000000   -7.4391959999999999
H      16.2860900000000015    3.6742050000000002   -6.9107690000000002
H      15.1679279999999999    5.2033519999999998   -4.8909360000000000
H      13.5004150000000003    7.4131479999999996   -5.0003320000000002
H      11.3323610000000006    9.3558360000000000   -4.8994530000000003
H      11.3384859999999996    9.8933909999999994   -9.2767549999999996
H      15.4536390000000008    5.0642959999999997   -9.9695570000000000
H       9.0602999999999998   11.2219669999999994   -7.4597689999999997
H      13.6778849999999998    7.8619880000000002   -9.6801490000000001
H      16.6276149999999987    2.5105719999999998   -9.4485499999999991
H      12.7890820000000005   -0.9696960000000000  -10.0877809999999997
H      13.4911440000000002   -0.7797560000000000   -7.7496590000000003
N       6.3507059999999997    2.0864099999999999   -7.8759949999999996
C       6.1706240000000001    3.4529700000000001   -8.1517400000000002
O       5.0593050000000002    3.9211790000000000   -8.3729490000000002
N       7.3432430000000002    4.2145479999999997   -8.1467050000000008
C       7.2754459999999996    5.6569380000000002   -8.3809159999999991
C       8.5519390000000008    3.6006040000000001   -7.8977620000000002
N       9.7653800000000004    4.2116379999999998   -7.8766040000000004
C      10.6176460000000006    3.2280820000000001   -7.5831879999999998
N      10.0113400000000006    2.0182730000000002   -7.4192850000000004
C      10.6506019999999992    0.7569750000000000   -7.0632960000000002
C       8.6563499999999998    2.2382040000000001   -7.6255069999999998
C       7.5268459999999999    1.3568460000000000   -7.5875230000000000
O       7.4998329999999997    0.1469580000000000   -7.3512610000000000
H       5.4865230000000000    1.5464920000000000   -7.8795529999999996
H       6.2464670000000000    5.9806770000000000   -8.1992949999999993
H       7.9702310000000001    6.1570489999999998   -7.7011450000000004
H       7.5572480000000004    5.8971700000000000   -9.4156119999999994
H      11.6878279999999997    3.3471780000000000   -7.4664039999999998
H      10.1896030000000000    0.3430940000000000   -6.1583160000000001
H      10.5390560000000004    0.0271810000000000   -7.8751670000000003
H      11.7109760000000005    0.9545330000000000   -6.8814320000000002
