   93
 
H      12.9214350000000007   -0.2955080000000000   -4.6670860000000003
O      14.8615159999999999    1.0477399999999999   -5.7621710000000004
H      15.0504850000000001   -0.1258760000000000   -3.4591710000000000
H      14.9025029999999994   -1.4769170000000000   -5.5031100000000004
Si     14.4098330000000008   -0.2524320000000000   -4.8040820000000002
O      13.4286110000000001    3.0824400000000001   -4.7762169999999999
O      15.7228960000000004    3.6181939999999999   -5.9940990000000003
Si     14.4086630000000007    2.5986220000000002   -5.9961840000000004
O      11.8329079999999998    5.2223920000000001   -5.1687799999999999
O      12.5021939999999994    4.4577340000000003   -2.6984640000000000
O      14.3616860000000006    5.5817690000000004   -4.3221230000000004
Si     13.0277609999999999    4.5902300000000000   -4.2331960000000004
O      10.2392009999999996    7.2599239999999998   -5.9164510000000003
O      12.8314380000000003    7.7210890000000001   -5.4729780000000003
Si     11.7339870000000008    6.6124330000000002   -6.0441190000000002
O       9.2463780000000000    7.9780460000000000   -3.5737320000000001
O      10.8119850000000000    9.7369230000000009   -4.9646610000000004
Si      9.6684950000000001    8.5580149999999993   -5.0475640000000004
H      11.5651689999999991    4.8648319999999998   -0.3707480000000000
H       9.9864449999999998    4.9420919999999997   -2.2541410000000002
H      11.5959559999999993    6.7654730000000001   -1.9239250000000001
Si     11.3615980000000008    5.2938429999999999   -1.7868310000000001
H       8.8026459999999993    7.4179959999999996   -1.1348309999999999
H       7.4892979999999998    9.2270540000000008   -2.1262050000000001
H       9.8628789999999995    9.5701730000000005   -1.6128709999999999
Si      8.8377020000000002    8.5821280000000009   -2.0747300000000002
H       8.1196169999999999    7.5299940000000003  -13.3436039999999991
H       9.1956609999999994    5.9455559999999998  -11.8088540000000002
H      11.1868859999999994    5.2906480000000000  -13.8748880000000003
Si      9.1135660000000005    7.3744909999999999  -12.2387540000000001
H      13.4067310000000006    4.8743720000000001  -14.8204949999999993
H      10.4615460000000002    7.8426220000000004  -12.6991350000000001
Si     12.6577520000000003    5.4681270000000000  -13.6728030000000000
H       5.3819179999999998   10.6926389999999998   -9.3352649999999997
H      12.9863569999999999    6.9202329999999996  -13.5343669999999996
O       8.5863490000000002    8.3305129999999998  -10.9756769999999992
Si      4.9473250000000002   10.5930160000000004   -7.9048840000000000
O      13.1427720000000008    4.6321750000000002  -12.3057169999999996
H       4.4589150000000002   11.9248940000000001   -7.4308889999999996
H       3.8543219999999998    9.5802320000000005   -7.7769310000000003
Si      9.2721210000000003    8.7798630000000006   -9.5579940000000008
O       6.2133170000000000   10.1019269999999999   -6.9360160000000004
O      10.0363070000000008   10.2542570000000008   -9.6815440000000006
Si     13.6244320000000005   -0.5139930000000000   -8.9390479999999997
Si     13.2158400000000000    4.8755249999999997  -10.6958649999999995
O       8.0865890000000000    8.9464679999999994   -8.4547369999999997
H      14.7824449999999992   -1.3889009999999999   -8.5842620000000007
O      10.3682710000000000    7.6469090000000000   -9.1165160000000007
O      14.5872410000000006    5.6959700000000000  -10.2375190000000007
Si      7.8241019999999999    9.9105139999999992   -7.1337520000000003
O      11.9425000000000008    5.7900010000000002  -10.2200530000000001
O      14.2385809999999999    0.9724980000000000   -9.4239250000000006
O       8.5621759999999991   11.3659560000000006   -7.3502039999999997
O      13.1917360000000006    3.3781610000000000   -9.9957709999999995
Si     11.8328629999999997    6.9616249999999997   -9.0622030000000002
Si     14.1561579999999996    2.5389740000000001   -8.9838149999999999
O      12.9343190000000003    8.1657770000000003   -9.3266299999999998
O      15.7148719999999997    3.1793030000000000   -9.0412970000000001
O       8.3315420000000007    9.1470490000000009   -5.7725770000000001
O      12.0256910000000001    6.2112420000000004   -7.6115430000000002
O      13.6262830000000008    2.7295560000000001   -7.4443960000000002
H      16.1407850000000010    3.6988960000000000   -6.8721420000000002
H      15.0998850000000004    5.1634900000000004   -4.8135839999999996
H      13.6097120000000000    7.2842979999999997   -5.0650469999999999
H      11.7207430000000006    9.3767359999999993   -4.9512150000000004
H      10.9910709999999998   10.2029390000000006   -9.8541089999999993
H      15.3072110000000006    5.1125819999999997   -9.9331659999999999
H       9.1992700000000003   11.3563130000000001   -8.0895489999999999
H      13.8260439999999996    7.8376789999999996   -9.5378930000000004
H      16.3495990000000013    2.6050550000000001   -9.5010910000000006
H      12.8635249999999992   -1.0909279999999999  -10.0870909999999991
H      12.7270789999999998   -0.3346700000000000   -7.7558499999999997
O       7.9474239999999998    3.7471139999999998   -6.6965360000000000
C       7.0632320000000002    3.7494310000000000   -7.7534660000000004
C       6.0663710000000002    2.8066550000000001   -7.9572419999999999
C       5.1953860000000001    2.8955479999999998   -9.0666159999999998
C       5.3752149999999999    3.9642450000000000   -9.9723340000000000
C       6.3769910000000003    4.9058310000000001   -9.7741919999999993
C       7.2285719999999998    4.8120110000000000   -8.6662529999999993
O       8.1914479999999994    5.7487570000000003   -8.4791070000000008
C       4.1697290000000002    1.8794340000000000   -9.2045399999999997
C       3.2184919999999999    1.7687440000000001  -10.1621799999999993
C       2.2673480000000001    0.6542390000000000  -10.1139430000000008
O       2.2284120000000001   -0.2432110000000000   -9.2818950000000005
O       1.3694180000000000    0.7170990000000000  -11.1535899999999994
H       7.6974359999999997    3.0560529999999999   -6.0618090000000002
H       5.9423029999999999    1.9833400000000001   -7.2491250000000003
H       4.7217339999999997    4.0600250000000004  -10.8394709999999996
H       6.5176150000000002    5.7436410000000002  -10.4566619999999997
H       8.6335820000000005    5.5801840000000000   -7.6243650000000001
H       4.1596050000000000    1.0994550000000001   -8.4350179999999995
H       3.1118519999999998    2.4791699999999999  -10.9822209999999991
H       0.7863010000000000   -0.0602590000000000  -11.0300700000000003
