  107
 
H      12.8280910000000006   -0.4911280000000000   -4.8071590000000004
O      14.7949959999999994    0.9858479999999999   -5.6545240000000003
H      14.5827430000000007    0.1382040000000000   -3.2117580000000001
H      15.0771560000000004   -1.4535670000000001   -5.0145350000000004
Si     14.2921090000000000   -0.2437640000000000   -4.6281129999999999
O      13.1458619999999993    2.9405340000000000   -4.9282950000000003
O      15.5761450000000004    3.5942010000000000   -5.7944069999999996
Si     14.3215260000000004    2.5125380000000002   -5.9822819999999997
O      11.5497589999999999    5.0969749999999996   -5.2391969999999999
O      12.0411680000000008    4.1284310000000000   -2.8145020000000001
O      14.0078230000000001    5.3962990000000000   -4.2093520000000000
Si     12.6827620000000003    4.3882839999999996   -4.2856240000000003
O      10.1827930000000002    7.2125539999999999   -6.2266180000000002
O      12.7975750000000001    7.4280179999999998   -5.8163489999999998
Si     11.5893060000000006    6.3791130000000003   -6.2584520000000001
O       9.5409360000000003    8.0860920000000007   -3.7958919999999998
O      10.8918719999999993    9.7295250000000006   -5.5305470000000003
Si      9.7602670000000007    8.5471740000000000   -5.3456869999999999
H      10.6944490000000005    4.1698550000000001   -0.6648280000000000
H       9.5116169999999993    4.7509779999999999   -2.7457950000000002
H      11.1288560000000007    6.3155679999999998   -1.7609990000000000
Si     10.7830739999999992    4.8730380000000002   -1.9788910000000000
H       8.3012979999999992    7.3477899999999998   -1.6881420000000000
H       7.7817949999999998    9.5711010000000005   -2.5910229999999999
H       9.9307789999999994    9.1588019999999997   -1.4895590000000001
Si      8.8612509999999993    8.5638600000000000   -2.3506380000000000
H       7.3262619999999998    7.5409470000000001  -13.2274519999999995
H       9.1584620000000001    6.1165349999999998  -12.4390850000000004
H      11.1587090000000000    4.2392000000000003  -13.8462510000000005
Si      8.6906479999999995    7.5275990000000004  -12.6203850000000006
H      13.2321969999999993    5.0150750000000004  -14.9106950000000005
H       9.6598340000000000    8.2519130000000001  -13.5026440000000001
Si     12.4086920000000003    5.0339450000000001  -13.6646450000000002
H       5.4504060000000001   10.1848410000000005   -9.7314100000000003
H      12.0733119999999996    6.4491949999999996  -13.3023059999999997
O       8.5841189999999994    8.2999440000000000  -11.1471380000000000
Si      4.9384990000000002   10.0364220000000000   -8.3333650000000006
O      13.3507339999999992    4.3413259999999996  -12.4595959999999994
H       4.2708810000000001   11.2976080000000003   -7.8886190000000003
H       3.9800170000000001    8.8926900000000000   -8.2504860000000004
Si      9.3385289999999994    8.2719290000000001   -9.6958590000000004
O       6.2055590000000000    9.7207910000000002   -7.2799410000000000
O      10.4259769999999996    9.5063639999999996   -9.5257930000000002
Si     14.6582849999999993   -0.6525080000000000   -8.7736780000000003
Si     13.4018429999999995    4.4919570000000002  -10.8374070000000007
O       8.2004560000000009    8.4504660000000005   -8.5345320000000005
H      15.8603529999999999   -1.2551250000000000   -8.1174680000000006
O      10.0668830000000007    6.7973410000000003   -9.5494529999999997
O      14.5702630000000006    5.5829380000000004  -10.3614259999999998
Si      7.8300609999999997    9.6163939999999997   -7.4225870000000000
O      11.9570729999999994    5.0703199999999997  -10.3100830000000006
O      15.0955429999999993    0.9005649999999999   -9.2439739999999997
O       8.4632790000000000   11.0702929999999995   -7.8439040000000002
O      13.7570709999999998    3.0199669999999998  -10.2000969999999995
Si     11.6113610000000005    6.3200750000000001   -9.3086169999999999
Si     14.6185069999999993    2.4276030000000000   -8.9494249999999997
O      12.5601540000000007    7.6463359999999998   -9.6427809999999994
O      16.0051120000000004    3.3770600000000002   -8.7667990000000007
O       8.3139120000000002    9.1030639999999998   -5.9209329999999998
O      11.8155880000000000    5.7953609999999998   -7.7737769999999999
O      13.7887039999999992    2.5930089999999999   -7.5441599999999998
H      16.0528590000000015    3.7560730000000002   -6.6330460000000002
H      14.8021460000000005    4.9887600000000001   -4.6186160000000003
H      13.4531569999999991    6.9947100000000004   -5.2243370000000002
H      11.7921720000000008    9.3521839999999994   -5.5789689999999998
H      11.3549179999999996    9.2247210000000006   -9.6527659999999997
H      15.3199430000000003    5.1713089999999999   -9.8916880000000003
H       9.3605619999999998   11.0196140000000007   -8.2218959999999992
H      13.4963460000000008    7.4097999999999997   -9.7886430000000004
H      16.8002800000000008    2.9573980000000000   -9.1364269999999994
H      14.3284800000000008   -1.4208400000000001  -10.0106800000000007
H      13.5052450000000004   -0.6383000000000000   -7.8282280000000002
C       8.1368700000000000    4.4218820000000001   -7.7818680000000002
C       7.0001939999999996    4.1199649999999997   -8.7885480000000005
C       7.1940650000000002    5.9705409999999999   -6.0909129999999996
C       7.5157410000000002    3.6652450000000001   -5.4213430000000002
C       6.9862590000000004    3.9626039999999998   -4.1616260000000000
C      10.5578869999999991    1.9575309999999999   -8.9547500000000007
C      10.4935369999999999    1.8631990000000000  -11.3862509999999997
H       5.6730790000000004    5.2214260000000001   -7.8769010000000002
H       6.6618459999999997    8.1932639999999992   -5.0263830000000000
H       5.8713309999999996    6.5123040000000003   -2.6197569999999999
H       8.1683710000000005    3.7302770000000001  -12.4583890000000004
H      12.3116360000000000    0.3155530000000000  -11.0246809999999993
C       7.6286209999999999    4.6694329999999997   -6.3879789999999996
C       6.6682730000000001    6.2690029999999997   -4.8376070000000002
C       6.5610840000000001    5.2578730000000000   -3.8623740000000000
C       9.4136590000000009    2.7476449999999999  -11.3787040000000008
C      11.0301340000000003    1.4506840000000001  -10.1628749999999997
C       7.6075679999999997    4.0785080000000002  -10.1838180000000005
O       5.9874440000000000    5.1205410000000002   -8.7966510000000007
O       6.2322360000000003    7.5197289999999999   -4.4567980000000000
O       6.0725199999999999    5.5551019999999998   -2.6179510000000001
O       8.8903490000000005    3.0922350000000001  -12.6030700000000007
O      12.0579830000000001    0.5302800000000000  -10.1094510000000000
C       9.4832059999999991    2.8544939999999999   -8.9816289999999999
C       8.8636119999999998    3.2420420000000001  -10.1840910000000004
O       9.0549130000000009    3.3055509999999999   -7.7580749999999998
H       8.6752800000000008    5.3177149999999997   -8.1311760000000000
H       6.5778010000000000    3.1308579999999999   -8.5250839999999997
H       7.2934520000000003    6.7505080000000000   -6.8442150000000002
H       7.8684529999999997    2.6602100000000002   -5.6474919999999997
H       6.8562079999999996    3.6650510000000001  -10.8791049999999991
H       7.8011710000000001    5.1221899999999998  -10.4902189999999997
H       6.9146559999999999    3.1956530000000001   -3.3908209999999999
H      11.0090240000000001    1.6748390000000000   -8.0062569999999997
H      10.8788529999999994    1.4965029999999999  -12.3384739999999997
