   90
 
H      13.2821130000000007   -0.3026790000000000   -4.6731210000000001
O      15.1655960000000007    1.2700880000000001   -5.5544300000000000
H      15.4554349999999996   -0.2567470000000000   -3.5091340000000000
H      15.2822200000000006   -1.2655440000000000   -5.7279179999999998
Si     14.7602890000000002   -0.1860420000000000   -4.8312730000000004
O      13.4979969999999998    3.2657740000000000   -4.8494799999999998
O      15.7727889999999995    3.8522660000000002   -6.0438859999999996
Si     14.5518210000000003    2.7193689999999999   -5.9674810000000003
O      11.7434729999999998    5.3397180000000004   -4.9866619999999999
O      12.7649340000000002    4.5912360000000003   -2.6578170000000001
O      14.3372519999999994    5.8090770000000003   -4.5076640000000001
Si     13.0891269999999995    4.7425610000000002   -4.2469219999999996
O      10.0502579999999995    7.2254959999999997   -5.9593119999999997
O      12.6069739999999992    7.8215680000000001   -5.6611729999999998
Si     11.5531550000000003    6.5912639999999998   -6.0317889999999998
O       8.9353149999999992    7.8573469999999999   -3.6212469999999999
O      10.4329630000000009    9.7186079999999997   -4.9565910000000004
Si      9.3838190000000008    8.4550160000000005   -5.0696519999999996
H      11.7862349999999996    4.8093899999999996   -0.3226860000000000
H      10.1984680000000001    4.6096110000000001   -2.1941630000000001
H      11.4601989999999994    6.6860400000000002   -1.8622390000000000
Si     11.4937280000000008    5.1938449999999996   -1.7360230000000001
H       8.6061239999999994    6.9868150000000000   -1.2555410000000000
H       7.3834799999999996    9.0075140000000005   -1.8988680000000000
H       9.8027270000000009    9.1102349999999994   -1.5195590000000001
Si      8.6775769999999994    8.2644669999999998   -2.0285750000000000
H       7.6568139999999998    8.0084510000000009  -13.2619670000000003
H       9.1795670000000005    6.3381639999999999  -12.2913730000000001
H      10.9593159999999994    4.5865879999999999  -13.5677059999999994
Si      8.9158880000000007    7.7961580000000001  -12.4856189999999998
H      13.0835190000000008    4.8892199999999999  -14.7596220000000002
H      10.0675500000000007    8.4362410000000008  -13.1962419999999998
Si     12.3331640000000000    5.1705360000000002  -13.4990009999999998
H       5.1024029999999998   10.0110519999999994   -9.6649799999999999
H      12.2484420000000007    6.6474780000000004  -13.2679349999999996
O       8.7006460000000008    8.5436040000000002  -11.0058360000000004
Si      4.6388340000000001    9.9870339999999995   -8.2405589999999993
O      13.1990309999999997    4.4450580000000004  -12.2621380000000002
H       4.1109410000000004   11.3304120000000008   -7.8512279999999999
H       3.5793509999999999    8.9483020000000000   -8.0628480000000007
Si      9.2682590000000005    8.4174609999999994   -9.4841680000000004
O       5.9031289999999998    9.5850030000000004   -7.2241869999999997
O      10.2594270000000005    9.6783819999999992   -9.0715699999999995
Si     14.1417599999999997   -0.7689460000000000   -9.0359449999999999
Si     13.2514599999999998    4.5425870000000002  -10.6359469999999998
O       7.9870330000000003    8.4283300000000008   -8.4481160000000006
H      15.3257169999999991   -1.6464280000000000   -8.8036870000000000
O      10.0294539999999994    6.9728100000000000   -9.3131959999999996
O      14.4908660000000005    5.5161389999999999  -10.1126269999999998
Si      7.5277399999999997    9.5369410000000006   -7.2748189999999999
O      11.8591829999999998    5.2091969999999996  -10.0819360000000007
O      14.7049719999999997    0.7812070000000000   -9.2834040000000009
O       8.1107399999999998   11.0305000000000000   -7.6199380000000003
O      13.4486340000000002    3.0089990000000002  -10.0660799999999995
Si     11.5693520000000003    6.4811589999999999   -9.0880360000000007
Si     14.4357620000000004    2.3524880000000001   -8.9429119999999998
O      12.5117709999999995    7.7933589999999997   -9.4796350000000000
O      15.9278940000000002    3.1341290000000002   -8.9942840000000004
O       8.0157249999999998    8.9372919999999993   -5.8319049999999999
O      11.8105539999999998    6.0050910000000002   -7.5441079999999996
O      13.8270879999999998    2.6095069999999998   -7.4497960000000001
H      16.2599060000000009    3.8332679999999999   -6.8889959999999997
H      15.0806609999999992    5.3913460000000004   -4.9942810000000000
H      13.4355229999999999    7.4686070000000004   -5.2712459999999997
H      11.3625720000000001    9.4263290000000008   -5.0430799999999998
H      11.2064749999999993    9.4810599999999994   -9.2110000000000003
H      15.2874110000000005    5.0269250000000003   -9.8323450000000001
H       9.0457199999999993   11.0258920000000007   -7.9024770000000002
H      13.4617670000000000    7.5907020000000003   -9.5489490000000004
H      16.6109660000000012    2.6369370000000001   -9.4741070000000001
H      13.3748129999999996   -1.2035480000000001  -10.2409320000000008
H      13.2505500000000005   -0.8017770000000000   -7.8302630000000004
C      10.7301520000000004    1.5778639999999999   -7.1164189999999996
C       9.8113589999999995    2.7249810000000001   -7.2883920000000000
C       9.3290330000000008    3.3384580000000001   -6.1238349999999997
C       8.4277689999999996    4.3967799999999997   -6.2343050000000000
O       7.9194959999999996    4.9774659999999997   -5.1123219999999998
C       8.0440679999999993    4.8507650000000000   -7.5056890000000003
O       7.1063390000000002    5.8675170000000003   -7.6086150000000004
C       8.5020019999999992    4.2041279999999999   -8.6650480000000005
O       8.0521449999999994    4.6124729999999996   -9.8898170000000007
C       9.4025520000000000    3.1449549999999999   -8.5647649999999995
O      11.1868219999999994    1.1826669999999999   -6.0539810000000003
O      11.0263000000000009    0.9446000000000000   -8.2981520000000000
H       9.6461570000000005    2.9853519999999998   -5.1452099999999996
H       7.3130699999999997    5.6856970000000002   -5.4122019999999997
H       7.5439870000000004    6.7190479999999999   -7.8534579999999998
H       7.3465569999999998    5.2669210000000000   -9.7122080000000004
H       9.7615929999999995    2.6549450000000001   -9.4664310000000000
H      11.5893510000000006    0.1910940000000000   -8.0285139999999995
