  115
 
H      13.3741920000000007   -0.5180709999999999   -5.5790759999999997
O      15.1347729999999991    1.3956090000000001   -5.4080990000000000
H      15.3357810000000008   -0.8296860000000000   -4.1124749999999999
H      15.5882170000000002   -0.8535830000000000   -6.5357690000000002
Si     14.8359249999999996   -0.2519460000000000   -5.3885480000000001
O      13.3687690000000003    3.3275440000000001   -4.6981140000000003
O      15.5295299999999994    3.9951420000000000   -6.0070629999999996
Si     14.4037100000000002    2.7789320000000002   -5.8434369999999998
O      11.4828630000000000    5.2423289999999998   -4.9466029999999996
O      12.5579680000000007    4.7496530000000003   -2.5855389999999998
O      14.0520340000000008    5.9412130000000003   -4.5222860000000003
Si     12.8768440000000002    4.8142930000000002   -4.1965240000000001
O       9.6063759999999991    6.9097670000000004   -5.9190310000000004
O      12.1323439999999998    7.7281250000000004   -5.8196009999999996
Si     11.1491609999999994    6.4107070000000004   -6.0604940000000003
O       8.5413150000000009    7.7217419999999999   -3.6354190000000002
O       9.8557059999999996    9.5224030000000006   -5.2216220000000000
Si      8.8778260000000007    8.1907180000000004   -5.1671339999999999
H      11.4827829999999995    5.1519990000000000   -0.3253740000000000
H       9.9768100000000004    4.6055760000000001   -2.1883469999999998
H      11.0486160000000009    6.8132970000000004   -2.0823429999999998
Si     11.1974370000000008    5.3586280000000004   -1.7772810000000001
H       8.2105390000000007    7.2352150000000002   -1.1691000000000000
H       6.6451409999999997    8.7976369999999999   -2.2233470000000000
H       8.9514999999999993    9.4889209999999995   -1.7760440000000000
Si      8.0706100000000003    8.3431689999999996   -2.1664189999999999
H       8.1975899999999999    8.5780600000000007  -13.5018130000000003
H       9.3055590000000006    6.6137540000000001  -12.5205850000000005
H      10.9224709999999998    4.4294229999999999  -13.8419960000000000
Si      9.2312999999999992    8.1099259999999997  -12.5242450000000005
H      13.2476500000000001    4.6561159999999999  -14.5899370000000008
H      10.5737609999999993    8.6628380000000007  -12.8936799999999998
Si     12.2949310000000001    4.8811929999999997  -13.4623069999999991
H       4.9684299999999997    9.7755189999999992   -9.9908819999999992
H      12.2757229999999993    6.3312549999999996  -13.0902349999999998
O       8.7732329999999994    8.6763680000000001  -11.0253010000000007
Si      4.3558320000000004    9.7269009999999998   -8.6253139999999995
O      12.8391319999999993    3.9591820000000002  -12.1713489999999993
H       3.8312990000000000   11.0787160000000000   -8.2563200000000005
H       3.2423280000000001    8.7295510000000007   -8.5993770000000005
Si      9.1236660000000001    8.3289320000000000   -9.4616319999999998
O       5.4815079999999998    9.2450240000000008   -7.4914639999999997
O      10.1710820000000002    9.4188229999999997   -8.7831679999999999
Si     13.0886169999999993   -0.8043560000000000   -9.1284150000000004
Si     12.9036259999999992    4.1749700000000001  -10.5548169999999999
O       7.7411459999999996    8.3689889999999991   -8.6001600000000007
H      13.6934400000000007   -2.0091899999999998   -8.4909420000000004
O       9.7686810000000008    6.8045939999999998   -9.4196369999999998
O      14.1700809999999997    5.1507909999999999  -10.0899680000000007
Si      7.1055999999999999    9.2605050000000002   -7.3620330000000003
O      11.5390219999999992    4.9205480000000001  -10.0469849999999994
O      14.1571759999999998    0.4641510000000000   -8.8641640000000006
O       7.6179389999999998   10.8244650000000000   -7.4123200000000002
O      13.0567940000000000    2.6761800000000000   -9.8818110000000008
Si     11.2576350000000005    6.2300389999999997   -9.0931429999999995
Si     14.0754929999999998    2.0871409999999999   -8.7417149999999992
O      12.3284839999999996    7.4535320000000000   -9.4257890000000000
O      15.6161820000000002    2.7130390000000002   -8.9538349999999998
O       7.4728630000000003    8.5301700000000000   -5.9301199999999996
O      11.3799510000000001    5.7321879999999998   -7.5343330000000002
O      13.5729190000000006    2.5759720000000002   -7.2592420000000004
H      16.1469169999999984    3.8869549999999999   -6.7484700000000002
H      14.8068069999999992    5.5527860000000002   -5.0178789999999998
H      13.0009230000000002    7.4797490000000000   -5.4414699999999998
H      10.7955799999999993    9.2856260000000006   -5.3470209999999998
H      11.1100189999999994    9.2375410000000002   -8.9695660000000004
H      15.0011329999999994    4.6762459999999999   -9.9081980000000005
H       8.5819559999999999   10.9316600000000008   -7.3317779999999999
H      13.2492699999999992    7.1510379999999998   -9.5184169999999995
H      16.2210320000000010    2.1088490000000002   -9.4142139999999994
H      12.9365129999999997   -1.0087330000000001  -10.6014029999999995
H      11.7687480000000004   -0.4870800000000000   -8.5009829999999997
C      11.3384789999999995    0.1542840000000000   -2.0380950000000002
C       9.0414069999999995   -0.1562990000000000   -3.0475810000000001
C       9.3451369999999994   -1.6238490000000001   -3.3807960000000001
C      10.4435509999999994   -2.1887650000000001   -2.4511219999999998
C       3.0891080000000000    3.4993159999999999   -5.0757960000000004
C       4.2371200000000000    2.3622179999999999   -6.8811700000000000
C       3.2782979999999999    2.8144110000000002   -7.7795779999999999
H      10.7529620000000001    1.0571539999999999   -0.3744020000000000
H       8.1243859999999994   -2.6709120000000000   -2.3383150000000001
H       9.9583849999999998   -1.6150310000000001   -0.6414230000000000
H       1.0751569999999999    4.9520900000000001   -4.6917869999999997
H       0.6448480000000000    4.6027089999999999   -7.7214809999999998
C       4.1650640000000001    2.6945359999999998   -5.5115980000000002
C       2.1319930000000000    3.9523500000000000   -5.9719309999999997
C       2.2191790000000000    3.6134879999999998   -7.3364390000000004
O      13.5252839999999992    0.8865250000000000   -2.8491710000000001
O       6.9674930000000002    1.4688820000000000   -2.4425530000000002
C      10.2993279999999992    0.7193560000000000   -3.0343110000000002
C      11.6858210000000007   -1.2965460000000000   -2.3936630000000001
O      10.8125909999999994    0.1369460000000000   -0.6943790000000000
O       8.1798620000000000   -2.4304790000000001   -3.2880300000000000
O       9.8825000000000003   -2.4495300000000002   -1.1500720000000000
O      12.4404550000000000    2.1268739999999999   -1.2882840000000000
O       1.0483169999999999    4.7419570000000002   -5.6404410000000000
O       1.2828290000000000    4.0564539999999996   -8.2219060000000006
C      12.5753850000000007    1.0535440000000000   -2.1133120000000001
C       7.1061920000000001    1.1339740000000000   -3.6118199999999998
O       8.1400500000000005    0.3421630000000000   -4.0611220000000001
H      13.1280590000000004    2.7835960000000002   -1.5373520000000001
C       6.2366529999999996    1.4929319999999999   -4.7365810000000002
C       5.1378839999999997    2.2539039999999999   -4.5275169999999996
H       8.5289859999999997   -0.0854050000000000   -2.0774919999999999
H      10.0257959999999997    1.7477760000000000   -2.7546780000000002
H      10.7400739999999999    0.7594240000000000   -4.0433870000000001
H       9.6904330000000005   -1.6812190000000000   -4.4285810000000003
H      10.7256990000000005   -3.1797390000000001   -2.8403459999999998
H      12.1902299999999997   -1.3010050000000000   -3.3702589999999999
H      12.3956830000000000   -1.6966019999999999   -1.6546870000000000
H       6.5233580000000000    1.1086680000000000   -5.7160409999999997
H       4.9625510000000004    2.5719780000000001   -3.4940970000000000
H       3.0142039999999999    3.7673990000000002   -4.0187049999999997
H       5.0524899999999997    1.7404360000000001   -7.2492760000000001
H       3.3310569999999999    2.5619390000000002   -8.8386119999999995
