   92
 
H      14.4871269999999992   -0.6866020000000000   -4.6373509999999998
O      15.6555830000000000    1.5671349999999999   -5.2087219999999999
H      16.8839390000000016   -0.4017970000000000   -4.1871479999999996
H      16.0900590000000001   -0.6245490000000000   -6.4850880000000002
Si     15.7671010000000003   -0.0936820000000000   -5.1259569999999997
O      13.7177640000000007    3.2681179999999999   -4.5151170000000000
O      15.7820920000000005    4.1731239999999996   -5.8768380000000002
Si     14.7842319999999994    2.8549449999999998   -5.6856470000000003
O      11.8829170000000008    5.2364639999999998   -4.8596599999999999
O      12.5888700000000000    4.4900010000000004   -2.4362029999999999
O      14.3496290000000002    5.8558209999999997   -4.0106159999999997
Si     13.1428290000000008    4.7124180000000004   -3.9569860000000001
O      10.0863049999999994    7.0345209999999998   -5.7514300000000000
O      12.6491439999999997    7.7417069999999999   -5.5124599999999999
Si     11.6144339999999993    6.4907399999999997   -5.8838790000000003
O       8.8066920000000000    7.7992749999999997   -3.5758619999999999
O      10.4883699999999997    9.5475209999999997   -4.8234690000000002
Si      9.3858990000000002    8.3415160000000004   -5.0121440000000002
H      11.3462289999999992    4.8575330000000001   -0.2470000000000000
H       9.9956809999999994    4.6679860000000000   -2.2848730000000002
H      11.3131860000000000    6.6923859999999999   -1.8808490000000000
Si     11.2581790000000002    5.2094959999999997   -1.6946470000000000
H       8.4784539999999993    7.1992870000000000   -1.1333690000000001
H       6.9989340000000002    8.9016169999999999   -2.0732279999999998
H       9.3467249999999993    9.4337990000000005   -1.6248490000000000
Si      8.3967139999999993    8.3671330000000008   -2.0674969999999999
H       7.0155380000000003    7.1847870000000000  -12.3918110000000006
H       8.9311679999999996    5.7670760000000003  -11.7616060000000004
H      10.7417520000000000    4.3671410000000002  -13.6061289999999993
Si      8.4956320000000005    7.1309220000000000  -12.1915600000000008
H      13.0224130000000002    4.7396849999999997  -14.4283079999999995
H       9.1923879999999993    7.4964870000000001  -13.4672180000000008
Si     12.1012930000000001    4.8754790000000003  -13.2608510000000006
H       5.8111230000000003   11.5406860000000009   -9.3030170000000005
H      12.0230289999999993    6.3058120000000004  -12.8291930000000001
O       8.9495199999999997    8.2855889999999999  -11.0735580000000002
Si      5.1183160000000001   10.9264150000000004   -8.1293670000000002
O      12.7358290000000007    3.9340210000000000  -12.0199929999999995
H       4.4921329999999999   11.9884959999999996   -7.2837860000000001
H       4.0593389999999996    9.9866869999999999   -8.6133780000000009
Si      9.3501340000000006    8.3957979999999992   -9.4992009999999993
O       6.1801940000000002   10.0497080000000008   -7.1877050000000002
O      10.4277219999999993    9.6350960000000008   -9.2437860000000001
Si     14.0009420000000002   -0.7461840000000000   -8.9895150000000008
Si     12.9758720000000007    4.2737840000000000  -10.4406400000000001
O       8.0351420000000005    8.7546640000000000   -8.5959979999999998
H      15.0392560000000000   -1.7564660000000001   -9.3423870000000004
O       9.9933829999999997    6.9555110000000004   -9.0093119999999995
O      14.2575420000000008    5.3136850000000004  -10.2075730000000000
Si      7.7763949999999999    9.7055749999999996   -7.2670640000000004
O      11.6365449999999999    5.0144180000000000   -9.8572140000000008
O      14.7746320000000004    0.7427190000000000   -8.9777640000000005
O       8.6357440000000008   11.1039940000000001   -7.3756700000000004
O      13.2704959999999996    2.8541400000000001   -9.6561149999999998
Si     11.5052299999999992    6.3679980000000000   -8.9242899999999992
Si     14.4424499999999991    2.3053580000000000   -8.6577359999999999
O      12.5311400000000006    7.5583179999999999   -9.4625000000000004
O      15.8520020000000006    3.1872010000000000   -8.9006369999999997
O       8.1194749999999996    8.8462379999999996   -5.9081570000000001
O      11.8702150000000000    5.9079800000000002   -7.3938509999999997
O      14.0010239999999992    2.5466310000000001   -7.1031500000000003
H      16.2339619999999982    4.2105880000000004   -6.7376820000000004
H      15.1099390000000007    5.5564289999999996   -4.5521500000000001
H      13.4258240000000004    7.4376800000000003   -4.9981499999999999
H      11.4058250000000001    9.2277500000000003   -4.9428960000000002
H      11.3565699999999996    9.4008319999999994   -9.4310419999999997
H      15.0718379999999996    4.8666950000000000   -9.9055789999999995
H       9.4821919999999995   10.9877540000000007   -7.8476129999999999
H      13.4237169999999999    7.2239769999999996   -9.6708200000000009
H      16.5413539999999983    2.7003450000000000   -9.3820440000000005
H      12.9057890000000004   -0.7181760000000000  -10.0057849999999995
H      13.4346300000000003   -1.0213810000000001   -7.6353960000000001
O      11.9346110000000003    0.5270140000000000   -5.0104600000000001
C      11.0815540000000006    1.4173169999999999   -5.6098960000000000
C      11.0067330000000005    1.3978690000000000   -7.0074889999999996
C      10.1977460000000004    2.3160509999999999   -7.6631239999999998
C       9.4169859999999996    3.2520419999999999   -6.9523010000000003
C       9.4947370000000006    3.2374360000000002   -5.5432269999999999
C      10.3157130000000006    2.3361179999999999   -4.8783360000000000
C       8.5562570000000004    4.1541730000000001   -7.6993200000000002
C       7.6727819999999998    5.0491330000000003   -7.2062640000000000
C       6.8393150000000000    5.8413599999999999   -8.1172450000000005
O       6.8823999999999996    5.8401269999999998   -9.3413210000000007
O       5.9517689999999996    6.6107360000000002   -7.4106629999999996
H      11.9342279999999992    0.6942850000000000   -4.0507669999999996
H      11.5915830000000000    0.6620330000000000   -7.5564929999999997
H      10.1585049999999999    2.3132709999999999   -8.7533270000000005
H       8.9255549999999992    3.9580820000000001   -4.9560170000000001
H      10.3889160000000000    2.3659569999999999   -3.7886460000000000
H       8.6197409999999994    4.0829940000000002   -8.7902410000000000
H       7.5267689999999998    5.2133200000000004   -6.1388800000000003
H       5.4687729999999997    7.1439469999999998   -8.0730690000000003
