   93
 
H      13.9659569999999995   -0.5190810000000000   -4.2678000000000003
O      15.2609770000000005    1.3560800000000000   -5.5224110000000000
H      16.1079499999999989    0.2405320000000000   -3.3509030000000002
H      16.0548590000000004   -1.0559870000000000   -5.4336570000000002
Si     15.3404959999999999   -0.0370810000000000   -4.6046959999999997
O      13.4383180000000007    3.1599309999999998   -4.6921099999999996
O      15.5682600000000004    3.9894240000000001   -6.0197029999999998
Si     14.4772119999999997    2.7355179999999999   -5.8828149999999999
O      11.5924130000000005    5.1241190000000003   -5.0671970000000002
O      12.3848210000000005    4.4639290000000003   -2.6255820000000001
O      14.0964030000000005    5.7499050000000000   -4.3106590000000002
Si     12.8788400000000003    4.6189030000000004   -4.1720319999999997
O       9.8918900000000001    7.0780620000000001   -5.8946909999999999
O      12.4883790000000001    7.5971050000000000   -5.7135189999999998
Si     11.3711800000000007    6.4170720000000001   -6.0643909999999996
O       8.7979179999999992    7.7086319999999997   -3.5633949999999999
O      10.4478899999999992    9.4990640000000006   -4.8188820000000003
Si      9.2953089999999996    8.3330389999999994   -4.9959129999999998
H      11.2968229999999998    4.8996709999999997   -0.3683780000000000
H       9.8152910000000002    4.7750029999999999   -2.3282340000000001
H      11.2645540000000004    6.7240289999999998   -2.0091450000000002
Si     11.1366639999999997    5.2459930000000004   -1.8121020000000001
H       8.2217319999999994    7.0982760000000003   -1.1703530000000000
H       7.0872900000000003    9.0431270000000001   -2.1357110000000001
H       9.4571240000000003    9.1806009999999993   -1.5221089999999999
Si      8.3790940000000003    8.2922619999999991   -2.0591279999999998
H       7.5765029999999998    8.4017830000000000  -13.2782450000000001
H       8.2660260000000001    6.3921539999999997  -12.0617020000000004
H      10.5746140000000004    4.8445790000000004  -13.5241629999999997
Si      8.6143450000000001    7.8230100000000000  -12.3748579999999997
H      12.7260880000000007    4.6743490000000003  -14.6958819999999992
H       9.9578930000000003    7.8450389999999999  -13.0381730000000005
Si     12.0546620000000004    5.0419060000000000  -13.4134379999999993
H       5.7101530000000000   11.0669339999999998   -9.5272459999999999
H      12.3434860000000004    6.4708579999999998  -13.0655110000000008
O       8.6390779999999996    8.7341680000000004  -10.9832579999999993
Si      4.9851700000000001   10.5874129999999997   -8.3054769999999998
O      12.6714669999999998    4.0263689999999999  -12.2270210000000006
H       4.1665010000000002   11.6960460000000008   -7.7237380000000000
H       4.0928269999999998    9.4391309999999997   -8.6743579999999998
Si      9.2275340000000003    8.5367850000000001   -9.4620639999999998
O       6.0607670000000002   10.0639109999999992   -7.1444799999999997
O      10.3976419999999994    9.6475980000000003   -9.0911329999999992
Si     13.9968350000000008   -0.9183330000000000   -8.9152000000000005
Si     12.8251910000000002    4.2725179999999998  -10.6168960000000006
O       7.9971129999999997    8.7242789999999992   -8.4116339999999994
H      15.1779770000000003   -1.7218510000000000   -9.3632120000000008
O       9.8291679999999992    6.9991620000000001   -9.3730340000000005
O      14.1063060000000000    5.2727380000000004  -10.2516759999999998
Si      7.6617600000000001    9.7415540000000007   -7.1461800000000002
O      11.4635499999999997    5.0335150000000004  -10.0945090000000004
O      14.4920349999999996    0.6711549999999999   -9.1070810000000009
O       8.4795960000000008   11.1600850000000005   -7.3093480000000000
O      13.0268829999999998    2.8096019999999999   -9.8950150000000008
Si     11.3121019999999994    6.3595179999999996   -9.1285620000000005
Si     14.1272850000000005    2.2284370000000000   -8.8308590000000002
O      12.3935110000000002    7.5504020000000001   -9.5433509999999995
O      15.5636960000000002    3.1012860000000000   -9.0437949999999994
O       7.9814999999999996    8.9607340000000004   -5.7389169999999998
O      11.5270150000000005    5.8470209999999998   -7.5927530000000001
O      13.6626829999999995    2.5689350000000002   -7.2993589999999999
H      15.9892299999999992    4.0370739999999996   -6.8967960000000001
H      14.8575789999999994    5.3978120000000001   -4.8219269999999996
H      13.2643719999999998    7.2233630000000000   -5.2367670000000004
H      11.3482640000000004    9.1452989999999996   -4.9717209999999996
H      11.3037369999999999    9.3414099999999998   -9.2921340000000008
H      14.8820110000000003    4.7750149999999998   -9.9188609999999997
H       9.4008819999999993   11.0537569999999992   -7.6091569999999997
H      13.2965140000000002    7.2093809999999996   -9.6894589999999994
H      16.2552230000000009    2.5981679999999998   -9.5042899999999992
H      12.8071140000000003   -1.2324820000000001   -9.7538009999999993
H      13.7673009999999998   -1.2293470000000000   -7.4663130000000004
O       6.6944910000000002    5.9410109999999996   -9.5601360000000000
C       7.2465109999999999    5.3224000000000000   -8.4613250000000004
C       8.2280169999999995    4.3464600000000004   -8.5194510000000001
C       8.7236180000000001    3.7434460000000001   -7.3422780000000003
C       8.2093710000000009    4.1765470000000002   -6.0995809999999997
C       7.2326180000000004    5.1602470000000000   -6.0387430000000002
C       6.7392070000000004    5.7419760000000002   -7.2141929999999999
O       5.7675289999999997    6.6877300000000002   -7.1413700000000002
C       9.7081780000000002    2.6959379999999999   -7.4915830000000003
C      10.2777089999999998    1.9323189999999999   -6.5257440000000004
C      11.2147059999999996    0.8863810000000000   -6.9053829999999996
O      11.5502579999999995    0.5697710000000000   -8.0482099999999992
O      11.7294000000000000    0.2390470000000000   -5.8102980000000004
H       7.2347859999999997    5.7464630000000003  -10.3477720000000009
H       8.6224360000000004    4.0337470000000000   -9.4892769999999995
H       8.5866589999999992    3.7479800000000001   -5.1717240000000002
H       6.8459240000000001    5.5144130000000002   -5.0826760000000002
H       5.6292879999999998    7.0410510000000004   -8.0434590000000004
H      10.0246630000000003    2.4779170000000001   -8.5168230000000005
H      10.0685070000000003    2.0502780000000000   -5.4628949999999996
H      12.3261970000000005   -0.4481910000000000   -6.1743569999999997
