  107
 
H      13.8510430000000007   -1.1017110000000001   -5.2934929999999998
O      15.2180769999999992    1.0744210000000001   -5.6893700000000003
H      15.0442789999999995   -0.1133780000000000   -3.3930199999999999
H      16.2961379999999991   -1.1724470000000000   -5.2177730000000002
Si     15.0821520000000007   -0.3743410000000000   -4.8662789999999996
O      13.5561550000000004    2.9929600000000001   -4.7701200000000004
O      15.6971919999999994    3.6985049999999999   -6.1249409999999997
Si     14.5279480000000003    2.5190839999999999   -5.9902800000000003
O      11.7059409999999993    4.9455320000000000   -5.0861640000000001
O      12.6424219999999998    4.3418159999999997   -2.6599979999999999
O      14.2371339999999993    5.5813959999999998   -4.4713310000000002
Si     13.0262899999999995    4.4554900000000002   -4.2275520000000002
O       9.9661209999999993    6.8127570000000004   -5.9661530000000003
O      12.5472370000000009    7.4372059999999998   -5.7645369999999998
Si     11.4787700000000008    6.2140789999999999   -6.1049680000000004
O       8.9964910000000007    7.6369759999999998   -3.6544279999999998
O      10.3954269999999998    9.3921309999999991   -5.2431440000000000
Si      9.3468689999999999    8.1258560000000006   -5.1689080000000001
H      11.6748469999999998    4.3738560000000000   -0.3021770000000000
H      10.2408970000000004    5.2250439999999996   -2.1195059999999999
H      12.1683299999999992    6.5270279999999996   -1.3748160000000000
Si     11.6287269999999996    5.1416519999999997   -1.5820040000000000
H       7.7875850000000000    6.6319800000000004   -1.6389160000000000
H       6.6712889999999998    8.4692340000000002   -2.8352339999999998
H       8.6450180000000003    8.9240290000000009   -1.4558819999999999
Si      7.9796120000000004    7.9266280000000000   -2.3556029999999999
H       7.8703880000000002    8.0140510000000003  -13.4800100000000000
H       9.1875450000000001    6.2024489999999997  -12.4752419999999997
H      11.0484910000000003    4.5726959999999996  -13.8334150000000005
Si      9.0270790000000005    7.6853999999999996  -12.5940200000000004
H      13.3113770000000002    4.7057419999999999  -14.7622029999999995
H      10.2804780000000004    8.2779799999999994  -13.1587449999999997
Si     12.4581979999999994    4.9970189999999999  -13.5711650000000006
H       5.0749139999999997    9.9102610000000002   -9.5592159999999993
H      12.4969439999999992    6.4596320000000000  -13.2468409999999999
O       8.7190100000000008    8.3538840000000008  -11.0981760000000005
Si      4.5336740000000004    9.6666699999999999   -8.1868189999999998
O      13.0818739999999991    4.1035329999999997  -12.2970199999999998
H       3.9114270000000002   10.9088309999999993   -7.6390789999999997
H       3.5415640000000002    8.5510669999999998   -8.1992010000000004
Si      9.1715820000000008    8.1909530000000004   -9.5345019999999998
O       5.7808430000000000    9.1939630000000001   -7.1559210000000002
O      10.1961510000000004    9.3963219999999996   -9.0409889999999997
Si     13.7040059999999997   -0.9383710000000000   -8.8196750000000002
Si     13.0810510000000004    4.2631569999999996  -10.6723929999999996
O       7.8405259999999997    8.3064149999999994   -8.5941980000000004
H      14.7190320000000003   -1.7853289999999999   -8.1213789999999992
O       9.8610360000000004    6.7046749999999999   -9.3353769999999994
O      14.3164529999999992    5.2370200000000002  -10.1320409999999992
Si      7.4202849999999998    9.2402960000000007   -7.3007629999999999
O      11.6786169999999991    4.9724420000000000  -10.1977320000000002
O      14.4471120000000006    0.5156420000000000   -9.2186950000000003
O       7.8965810000000003   10.7986120000000003   -7.5007739999999998
O      13.2297390000000004    2.7501869999999999  -10.0304959999999994
Si     11.3963800000000006    6.1986670000000004   -9.1400170000000003
Si     14.2504170000000006    2.1046299999999998   -8.9278779999999998
O      12.3576510000000006    7.5142530000000001   -9.4812270000000005
O      15.7522009999999995    2.8553769999999998   -9.0564719999999994
O       7.9436710000000001    8.5578529999999997   -5.9023909999999997
O      11.6719069999999991    5.6235520000000001   -7.6288539999999996
O      13.6930230000000002    2.4292690000000001   -7.4197410000000001
H      16.1412650000000006    3.7015440000000002   -6.9932179999999997
H      14.9871339999999993    5.2078259999999998   -4.9817600000000004
H      13.3484010000000008    7.0862119999999997   -5.3111959999999998
H      11.3289650000000002    9.1022750000000006   -5.2889200000000001
H      11.1396789999999992    9.1728880000000004   -9.1706900000000005
H      15.1224889999999998    4.7434250000000002   -9.8910149999999994
H       8.8237020000000008   10.8838889999999999   -7.7893949999999998
H      13.3086950000000002    7.3076819999999998   -9.4749960000000009
H      16.4320780000000006    2.3121700000000001   -9.4879680000000004
H      13.2685669999999991   -1.5877250000000001  -10.0938090000000003
H      12.5333819999999996   -0.6830710000000000   -7.9278620000000002
C       7.9709820000000002    4.0324600000000004   -4.3648140000000000
C       7.9028549999999997    3.0089990000000002   -5.5204290000000000
C       6.2540009999999997    5.8285340000000003   -4.7754690000000002
C       5.7329939999999997    4.0828829999999998   -3.1769530000000001
C       4.4791010000000000    4.6573000000000002   -2.9554279999999999
C       9.9694660000000006    2.0347960000000000   -2.0391970000000001
C      11.5580180000000006    0.6628970000000000   -3.2621699999999998
H       6.5698559999999997    4.0170630000000003   -6.5205580000000003
H       5.2033360000000002    7.9702799999999998   -5.7299629999999997
H       2.8544470000000000    7.1903160000000002   -3.9743750000000002
H      11.2203879999999998    1.1709700000000001   -6.3690639999999998
H      12.2630879999999998    0.1103570000000000   -0.9991719999999999
C       6.6308879999999997    4.6645430000000001   -4.0799170000000000
C       5.0052420000000000    6.4065719999999997   -4.5513380000000003
C       4.1098499999999998    5.8172069999999998   -3.6347550000000002
C      11.0177720000000008    1.1340340000000000   -4.4598849999999999
C      11.0244009999999992    1.1229260000000001   -2.0553210000000002
C       9.2999229999999997    2.4650240000000001   -5.7890340000000000
O       7.4273829999999998    3.5975130000000002   -6.7257309999999997
O       4.5371560000000004    7.5527069999999998   -5.1435540000000000
O       2.8885660000000000    6.3912399999999998   -3.4104120000000000
O      11.5873609999999996    0.6639220000000000   -5.6229620000000002
O      11.5169940000000004    0.7129270000000000   -0.8388460000000000
C       9.4455589999999994    2.4840080000000002   -3.2561860000000000
C       9.9455270000000002    2.0402930000000001   -4.4938399999999996
O       8.4039380000000001    3.3677999999999999   -3.1530890000000000
H       8.7070059999999998    4.8115579999999998   -4.6260209999999997
H       7.2394730000000003    2.1844299999999999   -5.1926530000000000
H       6.9436080000000002    6.2990230000000000   -5.4761030000000002
H       6.0278970000000003    3.1887270000000001   -2.6295790000000001
H       9.2064190000000004    1.6123320000000001   -6.4831960000000004
H       9.8781820000000007    3.2494809999999998   -6.3085310000000003
H       3.7739229999999999    4.2190659999999998   -2.2486630000000001
H       9.5523550000000004    2.3915449999999998   -1.0999289999999999
H      12.3841920000000005   -0.0464000000000000   -3.2855089999999998
