  101
 
H      13.7643219999999999   -0.3856930000000000   -4.4321250000000001
O      15.4948239999999995    1.3127320000000000   -5.3789400000000001
H      15.7436729999999994    0.1478730000000000   -3.0845810000000000
H      15.9778839999999995   -1.1714199999999999   -5.1373259999999998
Si     15.2247330000000005   -0.0669300000000000   -4.4703520000000001
O      13.8047070000000005    3.2166790000000001   -4.5822370000000001
O      15.9129229999999993    3.9176959999999998   -6.0179720000000003
Si     14.7822630000000004    2.7163379999999999   -5.7957570000000000
O      11.8436439999999994    5.0566700000000004   -4.9227670000000003
O      12.8491920000000004    4.6336539999999999   -2.5223939999999998
O      14.3569460000000007    5.8570240000000000   -4.4269390000000000
Si     13.2212409999999991    4.6799429999999997   -4.1140309999999998
O       9.8629770000000008    6.7016049999999998   -5.7238270000000000
O      12.3681160000000006    7.5982779999999996   -5.6631590000000003
Si     11.4176990000000007    6.2618749999999999   -5.9519180000000000
O       8.5975760000000001    7.4009159999999996   -3.5004480000000000
O      10.1637989999999991    9.2302859999999995   -4.7935489999999996
Si      9.1225769999999997    7.9651059999999996   -4.9486030000000003
H      11.7414170000000002    5.0880549999999998   -0.2712320000000000
H      10.2801340000000003    4.4538609999999998   -2.1255430000000000
H      11.2903459999999995    6.6722020000000004   -2.0962130000000001
Si     11.4980440000000002    5.2366210000000004   -1.7347539999999999
H       8.4169610000000006    6.7699800000000003   -1.0460330000000000
H       7.0924240000000003    8.6771360000000008   -1.8179289999999999
H       9.5207979999999992    8.8897460000000006   -1.5674680000000001
Si      8.4039690000000000    7.9680540000000004   -1.9445020000000000
H       7.5769789999999997    7.5459569999999996  -13.1654769999999992
H       9.2795450000000006    6.1013099999999998  -12.1554029999999997
H      10.8376619999999999    4.2969410000000003  -13.7407330000000005
Si      8.8684650000000005    7.5180800000000003  -12.4137170000000001
H      13.1407690000000006    4.5633030000000003  -14.5469880000000007
H       9.9367289999999997    8.1970589999999994  -13.2152189999999994
Si     12.2056670000000000    4.7906279999999999  -13.4036629999999999
H       5.1877360000000001   10.2650120000000005   -9.5061479999999996
H      12.1577140000000004    6.2535520000000000  -13.0662269999999996
O       8.6490360000000006    8.3366019999999992  -10.9828759999999992
Si      4.7669400000000000   10.3877900000000007   -8.0770389999999992
O      12.8016489999999994    3.9082580000000000  -12.1064249999999998
H       4.6653750000000000   11.8258910000000004   -7.6820149999999998
H       3.4222229999999998    9.7434250000000002   -7.8970250000000002
Si      9.1057389999999998    8.2366320000000002   -9.4159159999999993
O       5.8222290000000001    9.5878650000000007   -7.0621479999999996
O      10.1781950000000005    9.4264849999999996   -8.9902800000000003
Si     14.1269819999999999   -0.9098590000000000   -8.7167999999999992
Si     12.9343290000000000    4.2190899999999996  -10.5096410000000002
O       7.7869070000000002    8.4363670000000006   -8.4815389999999997
H      15.2831820000000000   -1.7997449999999999   -9.0434140000000003
O       9.7840790000000002    6.7516800000000003   -9.1520689999999991
O      14.1698350000000008    5.2790580000000000  -10.1623219999999996
Si      7.4356700000000000    9.3157999999999994   -7.1257710000000003
O      11.5399899999999995    4.9141839999999997   -9.9949790000000007
O      14.6736869999999993    0.6460300000000000   -9.0483220000000006
O       8.1957979999999999   10.7736199999999993   -7.1621660000000000
O      13.1951630000000009    2.7735020000000001   -9.7625519999999995
Si     11.3092659999999992    6.2080909999999996   -8.9980159999999998
Si     14.3456790000000005    2.2059750000000000   -8.7379829999999998
O      12.3099109999999996    7.4644940000000002   -9.4238999999999997
O      15.7666129999999995    3.0813199999999998   -9.0068029999999997
O       7.7956450000000004    8.4140350000000002   -5.7976460000000003
O      11.6161049999999992    5.6888949999999996   -7.4751399999999997
O      13.9287329999999994    2.5196660000000000   -7.1905799999999997
H      16.2721139999999984    3.9302720000000000   -6.9248519999999996
H      15.1262150000000002    5.5059750000000003   -4.9218380000000002
H      13.2427689999999991    7.3501459999999996   -5.2944440000000004
H      11.0923069999999999    8.9717859999999998   -4.9672820000000000
H      11.1140889999999999    9.1990979999999993   -9.1504230000000000
H      14.9866299999999999    4.8284849999999997   -9.8720479999999995
H       9.1051950000000001   10.7267030000000005   -7.5127670000000002
H      13.2210370000000008    7.1677359999999997   -9.6095210000000009
H      16.4388429999999985    2.5890170000000001   -9.5060129999999994
H      12.9728639999999995   -1.2489630000000000   -9.6028210000000005
H      13.7741889999999998   -1.0361640000000001   -7.2747279999999996
C       9.1492860000000000    3.2074509999999998   -6.8744280000000000
C       9.4322809999999997    3.0566800000000001   -5.5048930000000000
C      10.4110080000000007    2.1550229999999999   -5.0755080000000001
O      10.7333359999999995    2.0094639999999999   -3.7473220000000000
C      11.1124229999999997    1.3683099999999999   -5.9899190000000004
C      10.8354130000000008    1.5318959999999999   -7.3504410000000000
O      11.5532419999999991    0.7479140000000000   -8.2342479999999991
C       9.8833280000000006    2.4405470000000000   -7.8024290000000001
C       8.0919849999999993    4.1331619999999996   -7.2614289999999997
C       7.6713360000000002    4.3976400000000000   -8.5201270000000005
C       6.5725949999999997    5.2710379999999999   -8.9054909999999996
C       6.3690350000000002    5.5578630000000002  -10.2719609999999992
C       5.3409769999999996    6.3878069999999996  -10.7071769999999997
C       4.4616490000000004    6.9416679999999999   -9.7695010000000000
O       3.4477259999999998    7.7379870000000004  -10.2398310000000006
C       4.6330159999999996    6.6623809999999999   -8.4042589999999997
C       5.6751940000000003    5.8473769999999998   -7.9823979999999999
H       8.8922919999999994    3.6655160000000002   -4.7763619999999998
H      10.2334019999999999    2.6749200000000002   -3.2402430000000000
H      11.8574719999999996    0.6507280000000000   -5.6520739999999998
H      11.2927409999999995    1.0096280000000000   -9.1356699999999993
H       9.7072450000000003    2.5455820000000000   -8.8741199999999996
H       7.6064369999999997    4.6397469999999998   -6.4224530000000000
H       8.1934489999999993    3.9291440000000000   -9.3610019999999992
H       7.0452440000000003    5.1132860000000004  -11.0059120000000004
H       5.1999300000000002    6.6111300000000002  -11.7645789999999995
H       2.9548530000000000    8.0966199999999997   -9.4783539999999995
H       3.9466329999999998    7.0879050000000001   -7.6693600000000002
H       5.7845950000000004    5.6575540000000002   -6.9140720000000000
