  107
 
H      13.9718999999999998   -0.0972350000000000   -3.7628439999999999
O      15.3966770000000004    1.5166059999999999   -5.2151360000000002
H      16.3828980000000008   -0.4755670000000000   -4.0057809999999998
H      14.8917959999999994   -0.9306570000000000   -5.8946540000000001
Si     15.1296020000000002   -0.0610080000000000   -4.7042440000000001
O      13.4908800000000006    3.3330799999999998   -4.6514980000000001
O      15.6821249999999992    4.1091179999999996   -5.9055920000000004
Si     14.6199270000000006    2.8451900000000001   -5.7265519999999999
O      11.6685979999999994    5.3167790000000004   -4.8941549999999996
O      12.5465570000000000    4.5938949999999998   -2.4963720000000000
O      14.2092740000000006    5.9022530000000000   -4.1947840000000003
Si     12.9848370000000006    4.7859129999999999   -4.0576860000000003
O       9.9227860000000003    7.2289420000000000   -5.7201430000000002
O      12.4242709999999992    7.8947919999999998   -5.2342950000000004
Si     11.4566499999999998    6.6702599999999999   -5.8160650000000000
O       8.2902590000000007    7.6883070000000000   -3.6304500000000002
O      10.2567249999999994    9.4587710000000005   -4.2064560000000002
Si      9.1694449999999996    8.4067200000000000   -4.8395630000000001
H      11.3542760000000005    4.8605850000000004   -0.2597330000000000
H       9.9589669999999995    4.4163540000000001   -2.2350349999999999
H      11.0095469999999995    6.6083530000000001   -1.9465440000000001
Si     11.1609619999999996    5.1366100000000001   -1.7138700000000000
H       8.1261980000000005    6.4677309999999997   -1.3857299999999999
H       6.8204500000000001    8.5101160000000000   -1.6913490000000000
H       9.2627980000000001    8.6488340000000008   -1.4031089999999999
Si      8.1336259999999996    7.8487010000000001   -1.9624090000000001
H       7.4962980000000003    7.5275679999999996  -13.1934199999999997
H       9.0730690000000003    5.9727589999999999  -12.1263629999999996
H      10.9184000000000001    4.5571599999999997  -13.6982180000000007
Si      8.7392900000000004    7.4111570000000002  -12.3721510000000006
H      13.2534690000000008    5.0296599999999998  -14.2629959999999993
H       9.8798759999999994    8.0757960000000004  -13.0786400000000000
Si     12.2218309999999999    5.0745139999999997  -13.1801600000000008
H       4.8197369999999999    9.7857099999999999   -9.4711990000000004
H      12.0649270000000008    6.4749509999999999  -12.6757559999999998
O       8.4505669999999995    8.1841209999999993  -10.9232809999999994
Si      4.6784160000000004   10.3437090000000005   -8.0896960000000000
O      12.7404440000000001    4.0736499999999998  -11.9393910000000005
H       4.6872420000000004   11.8409169999999992   -8.1390010000000004
H       3.4073030000000002    9.8679030000000001   -7.4639620000000004
Si      9.0896519999999992    8.2346559999999993   -9.4222710000000003
O       5.9202469999999998    9.8043350000000000   -7.1127339999999997
O      10.1511329999999997    9.4996919999999996   -9.2388770000000005
Si     13.9322409999999994   -0.8055900000000000   -9.5021079999999998
Si     12.9971049999999995    4.2531070000000000  -10.3373960000000000
O       7.8829300000000000    8.4384660000000000   -8.3446370000000005
H      15.0547079999999998   -1.6152930000000001  -10.0726189999999995
O       9.8550920000000009    6.8019400000000001   -9.1242269999999994
O      14.2744459999999993    5.2705070000000003  -10.0201630000000002
Si      7.5360420000000001    9.6252429999999993   -7.2405350000000004
O      11.6772860000000005    4.8945429999999996   -9.6151180000000007
O      14.6491380000000007    0.5830770000000000   -8.8715700000000002
O       8.2057050000000000   11.0596770000000006   -7.6873649999999998
O      13.3103569999999998    2.7412459999999998   -9.7491889999999994
Si     11.4095119999999994    6.3572410000000001   -8.9111890000000002
Si     14.3963280000000005    2.1711060000000000   -8.6680729999999997
O      12.2948050000000002    7.5395009999999996   -9.6898750000000007
O      15.8580810000000003    2.9826009999999998   -8.8248099999999994
O       8.0555900000000005    9.1386859999999999   -5.7624820000000003
O      11.8835709999999999    6.3066500000000003   -7.3492059999999997
O      13.8462960000000006    2.5411969999999999   -7.1616619999999998
H      16.1936789999999995    4.0869850000000003   -6.7342550000000001
H      14.9611219999999996    5.5709049999999998   -4.7316479999999999
H      13.2656109999999998    7.5585570000000004   -4.8575739999999996
H      11.1819210000000009    9.1959300000000006   -4.4037290000000002
H      11.0674250000000001    9.2519019999999994   -9.4705860000000008
H      15.1111400000000007    4.8155039999999998   -9.8159469999999995
H       9.0676299999999994   10.9610959999999995   -8.1358339999999991
H      13.2494390000000006    7.3626240000000003   -9.7436710000000009
H      16.5547180000000012    2.4580940000000000   -9.2544299999999993
H      12.9582660000000001   -0.4175980000000000  -10.5703200000000006
H      13.2576610000000006   -1.5516520000000000   -8.4020460000000003
C       8.0356410000000000    3.0244160000000000   -6.1216910000000002
C       9.0726700000000005    3.2531780000000001   -7.2400460000000004
C       6.8288650000000004    5.0898250000000003   -5.4022170000000003
C       5.8670799999999996    3.7880620000000000   -7.2035869999999997
C       4.8543649999999996    4.7393999999999998   -7.3525970000000003
C       8.1887399999999992   -0.5825050000000001   -5.7969770000000000
C      10.5063960000000005   -1.2944760000000000   -5.9776119999999997
H       8.6861580000000007    5.1583899999999998   -7.4410129999999999
H       6.5495150000000004    7.3793259999999998   -4.3555970000000004
H       4.0992259999999998    7.5546650000000000   -6.0827580000000001
H      12.3325130000000005    1.1985129999999999   -6.7314170000000004
H       9.5188550000000003   -3.4245380000000001   -5.3376669999999997
C       6.8636670000000004    3.9588570000000001   -6.2336299999999998
C       5.8231710000000003    6.0421379999999996   -5.5524899999999997
C       4.8337760000000003    5.8750629999999999   -6.5420059999999998
C      10.8606979999999993    0.0081940000000000   -6.3335809999999997
C       9.1598349999999993   -1.5803810000000000   -5.7232890000000003
C      10.3082779999999996    2.4095559999999998   -6.9531310000000000
O       9.4829819999999998    4.6136439999999999   -7.2932949999999996
O       5.6885490000000001    7.1692390000000001   -4.7801309999999999
O       3.8726929999999999    6.8320090000000002   -6.7054640000000001
O      12.1915829999999996    0.2419260000000000   -6.5846179999999999
O       8.7390480000000004   -2.8418130000000001   -5.3716679999999997
C       8.5786770000000008    0.7141340000000000   -6.1480439999999996
C       9.9128500000000006    1.0372370000000000   -6.4571889999999996
O       7.5753130000000004    1.6540919999999999   -6.1865259999999997
H       8.5378720000000001    3.1822390000000000   -5.1483869999999996
H       8.6091700000000007    2.9435169999999999   -8.1977110000000000
H       7.5970810000000002    5.2309739999999998   -4.6398460000000004
H       5.8769700000000000    2.9027550000000000   -7.8414520000000003
H      10.9102680000000003    2.3418019999999999   -7.8759009999999998
H      10.9158190000000008    2.9598309999999999   -6.2119890000000000
H       4.0767860000000002    4.6220869999999996   -8.1079670000000004
H       7.1451169999999999   -0.7892880000000000   -5.5678260000000002
H      11.2838460000000005   -2.0563929999999999   -5.9019649999999997
