   90
 
H      13.2273840000000007   -0.4101200000000000   -4.6420019999999997
O      15.1134930000000001    1.1816660000000001   -5.4742790000000001
H      15.3871260000000003   -0.3990300000000000   -3.4685950000000001
H      15.2181510000000006   -1.3556379999999999   -5.7191890000000001
Si     14.7108889999999999   -0.2923880000000000   -4.7970620000000004
O      13.4559569999999997    3.1797480000000000   -4.8036130000000004
O      15.7096999999999998    3.7374470000000000   -6.0797980000000003
Si     14.4897430000000007    2.6156039999999998   -5.9325239999999999
O      11.8059870000000000    5.3098219999999996   -5.0259549999999997
O      12.6888000000000005    4.5398980000000000   -2.6425719999999999
O      14.3980569999999997    5.6852109999999998   -4.4154390000000001
Si     13.0881550000000004    4.6776890000000000   -4.2152180000000001
O      10.2162179999999996    7.2813400000000001   -5.9826850000000000
O      12.8131559999999993    7.7440490000000004   -5.6708930000000004
Si     11.6826480000000004    6.5901480000000001   -6.0527920000000002
O       9.0065130000000000    7.8085839999999997   -3.6668759999999998
O      10.6809399999999997    9.6470430000000000   -4.7662399999999998
Si      9.5483480000000007    8.4787949999999999   -5.0571669999999997
H      11.7555460000000007    4.9590090000000000   -0.3156080000000000
H      10.1373730000000002    4.7041769999999996   -2.1508060000000002
H      11.4866329999999994    6.7471819999999996   -1.9743029999999999
Si     11.4607039999999998    5.2675239999999999   -1.7476640000000001
H       8.5357869999999991    6.9375939999999998   -1.3239350000000001
H       7.2936579999999998    8.9113869999999995   -2.0621200000000002
H       9.6746070000000000    9.0939340000000009   -1.5099220000000000
Si      8.6180020000000006    8.2131729999999994   -2.1044820000000000
H       7.5661730000000000    7.9965849999999996  -13.1365680000000005
H       9.0955539999999999    6.3063859999999998  -12.2352900000000009
H      10.8561499999999995    4.5655390000000002  -13.5537930000000006
Si      8.8818540000000006    7.7695499999999997  -12.4670299999999994
H      13.0041940000000000    4.8477690000000004  -14.7070989999999995
H       9.9886300000000006    8.3072569999999999  -13.3219279999999998
Si     12.2495089999999998    5.0947800000000001  -13.4417000000000009
H       5.1636139999999999    9.7963360000000002   -9.5474060000000005
H      12.2165260000000000    6.5600790000000000  -13.1338460000000001
O       8.8637490000000003    8.5949690000000007  -11.0221400000000003
Si      4.7141489999999999    9.7696869999999993   -8.1175840000000008
O      13.0704980000000006    4.2700139999999998  -12.2327610000000000
H       4.0445460000000004   11.0646649999999998   -7.7749569999999997
H       3.7589199999999998    8.6370430000000002   -7.9078189999999999
Si      9.3726129999999994    8.5024519999999999   -9.4735300000000002
O       6.0096109999999996    9.5418099999999999   -7.0920480000000001
O      10.4553890000000003    9.6913689999999999   -9.0939890000000005
Si     13.6711390000000002   -0.8614660000000000   -8.8751829999999998
Si     13.1502210000000002    4.4167880000000004  -10.6098459999999992
O       8.0823540000000005    8.6497519999999994   -8.4997509999999998
H      14.7540630000000004   -1.8763300000000001   -8.7083680000000001
O      10.0435219999999994    6.9888750000000002   -9.2620459999999998
O      14.4378240000000009    5.3545569999999998  -10.1316839999999999
Si      7.6294069999999996    9.6347930000000002   -7.2482369999999996
O      11.7933389999999996    5.1595730000000000  -10.0698720000000002
O      14.4236959999999996    0.5938390000000000   -9.2408190000000001
O       8.0283049999999996   11.2020070000000000   -7.5805840000000000
O      13.2910550000000001    2.8981420000000000   -9.9859609999999996
Si     11.5894600000000008    6.4685309999999996   -9.0965710000000009
Si     14.2721699999999991    2.1790690000000001   -8.8977290000000000
O      12.5567349999999998    7.7346399999999997   -9.5623539999999991
O      15.7986470000000008    2.8845179999999999   -8.9850359999999991
O       8.2875709999999998    9.1465979999999991   -5.8372659999999996
O      11.9133650000000006    5.9935510000000001   -7.5669810000000002
O      13.7152860000000008    2.4532560000000001   -7.3831379999999998
H      16.1501820000000009    3.7087560000000002   -6.9498600000000001
H      15.1119730000000008    5.2597290000000001   -4.9377339999999998
H      13.6027810000000002    7.3523269999999998   -5.2391579999999998
H      11.5868859999999998    9.3260389999999997   -4.9355320000000003
H      11.3817070000000005    9.4553740000000008   -9.2948930000000001
H      15.2284059999999997    4.8431350000000002   -9.8797010000000007
H       8.9763380000000002   11.3472580000000001   -7.7392700000000003
H      13.5011369999999999    7.5047509999999997   -9.6228920000000002
H      16.4639160000000011    2.3359649999999998   -9.4323200000000007
H      12.7702709999999993   -1.2328020000000000  -10.0080279999999995
H      12.8857429999999997   -0.7178930000000000   -7.6098109999999997
C       7.0739570000000001    5.3518160000000004   -7.4384880000000004
C       5.8633069999999998    4.5002360000000001   -7.2675369999999999
C       5.1329609999999999    4.6836140000000004   -6.0856700000000004
C       3.9905789999999999    3.9154939999999998   -5.8703200000000004
O       3.2659970000000000    4.0627709999999997   -4.7193110000000003
C       3.5837970000000001    2.9970870000000001   -6.8488119999999997
O       2.4451120000000000    2.2044109999999999   -6.6269570000000000
C       4.3423299999999996    2.7896440000000000   -8.0098400000000005
O       3.9484300000000001    1.8496680000000001   -8.9220659999999992
C       5.4877520000000004    3.5546940000000000   -8.2329450000000008
O       7.4519500000000001    6.1625410000000000   -6.6113169999999997
O       7.7186009999999996    5.1341739999999998   -8.6178670000000004
H       5.4659950000000004    5.4107750000000001   -5.3471190000000002
H       2.6044250000000000    3.3418470000000000   -4.7120590000000000
H       1.6583699999999999    2.6867969999999999   -6.9489159999999996
H       3.1975570000000002    1.3721550000000000   -8.5150629999999996
H       6.0718639999999997    3.4087630000000000   -9.1386730000000007
H       8.4755629999999993    5.7620420000000001   -8.6452700000000000
