   92
 
H      13.6220909999999993   -0.2759250000000000   -5.0578539999999998
O      15.5795589999999997    1.4390870000000000   -5.1074539999999997
H      15.2750509999999995   -0.2969610000000000   -3.2372930000000002
H      15.9020419999999998   -1.0772539999999999   -5.4754430000000003
Si     15.0665220000000009   -0.1053010000000000   -4.7035010000000002
O      13.6581980000000005    3.2758609999999999   -4.8975799999999996
O      16.0104930000000003    3.9966210000000002   -5.9050209999999996
Si     14.9108350000000005    2.7490860000000001   -5.8107030000000002
O      11.7487119999999994    5.2014160000000000   -5.0530260000000000
O      12.8014690000000009    4.5661030000000000   -2.7188129999999999
O      14.2971830000000004    5.8826309999999999   -4.5907099999999996
Si     13.1387009999999993    4.7187310000000000   -4.3082729999999998
O       9.8673859999999998    7.0006969999999997   -5.7557080000000003
O      12.4199950000000001    7.7780170000000002   -5.6383320000000001
Si     11.4015000000000004    6.5178060000000002   -5.9764330000000001
O       8.6922680000000003    7.7785940000000000   -3.5027729999999999
O      10.1679639999999996    9.5712370000000000   -4.9500690000000001
Si      9.1394219999999997    8.2828739999999996   -4.9916010000000002
H      11.9334360000000004    5.1329089999999997   -0.3907330000000000
H      10.2643199999999997    4.6264219999999998   -2.1247710000000000
H      11.4939490000000006    6.7438669999999998   -2.1864659999999998
Si     11.5687949999999997    5.2911469999999996   -1.8292379999999999
H       8.7701119999999992    7.0373989999999997   -1.0711100000000000
H       7.4604419999999996    9.0327940000000009   -1.6042749999999999
H       9.9099389999999996    9.1265579999999993   -1.6412970000000000
Si      8.7110059999999994    8.2728950000000001   -1.9143230000000000
H       7.5687400000000000    8.1529369999999997  -13.4258860000000002
H       8.8910680000000006    6.2831960000000002  -12.5319070000000004
H      11.1683269999999997    4.2828830000000000  -13.2020440000000008
Si      8.7341250000000006    7.7720649999999996  -12.5723280000000006
H      13.1286609999999992    4.8767339999999999  -14.5608939999999993
H       9.9908880000000000    8.3836919999999999  -13.1128429999999998
Si     12.4376999999999995    5.0689859999999998  -13.2518300000000000
H       5.3208799999999998    9.7087900000000005   -9.8686790000000002
H      12.1491460000000000    6.5198010000000002  -13.0230180000000004
O       8.4242860000000004    8.3628339999999994  -11.0408430000000006
Si      4.6430119999999997    9.6607959999999995   -8.5342459999999996
O      13.5028430000000004    4.5108389999999998  -12.0769330000000004
H       4.0429919999999999   10.9932710000000000   -8.2171769999999995
H       3.5746690000000001    8.6144909999999992   -8.5425009999999997
Si      9.1285779999999992    8.2553520000000002   -9.5704630000000002
O       5.7383769999999998    9.2533100000000008   -7.3374420000000002
O      10.1007660000000001    9.5615020000000008   -9.2503580000000003
Si     15.0234360000000002   -0.6004159999999999   -9.3074670000000008
Si     13.4997010000000000    4.6329170000000000  -10.4500679999999999
O       7.9511710000000004    8.1903570000000006   -8.4452219999999993
H      16.3068230000000014   -1.3642300000000001   -9.3395170000000007
O      10.0234950000000005    6.8631510000000002   -9.5350680000000008
O      14.6066380000000002    5.7476929999999999   -9.8984319999999997
Si      7.3706569999999996    9.2429489999999994   -7.2999090000000004
O      12.0222230000000003    5.1704790000000003   -9.9695780000000003
O      15.4167600000000000    1.0261450000000001   -9.4495330000000006
O       7.9146890000000001   10.7723689999999994   -7.5790389999999999
O      13.8326709999999995    3.1494469999999999   -9.8204499999999992
Si     11.5353379999999994    6.4650889999999999   -9.0903440000000000
Si     14.9598089999999999    2.4722369999999998   -8.8577100000000009
O      12.4795660000000002    7.8066019999999998   -9.3346570000000000
O      16.3147179999999992    3.4794510000000001   -8.8235240000000008
O       7.7870390000000000    8.6754379999999998   -5.8148650000000002
O      11.5654909999999997    5.9735550000000002   -7.5224060000000001
O      14.4101830000000000    2.3509929999999999   -7.3281349999999996
H      16.4450760000000002    4.0392029999999997   -6.7798959999999999
H      15.0982629999999993    5.5082469999999999   -5.0194679999999998
H      13.2875960000000006    7.4631650000000000   -5.3015730000000003
H      11.1092460000000006    9.3174589999999995   -5.0099549999999997
H      11.0561579999999999    9.3676940000000002   -9.3215970000000006
H      15.4554100000000005    5.3575770000000000   -9.6215620000000008
H       8.8341910000000006   10.8126460000000009   -7.9034969999999998
H      13.4367090000000005    7.6318349999999997   -9.3818870000000008
H      17.0946059999999989    3.1125419999999999   -9.2714309999999998
H      14.1510300000000004   -0.9824950000000000  -10.4577980000000004
H      14.3100400000000008   -0.8296910000000000   -8.0126449999999991
O      11.5463470000000008    3.0306060000000001   -7.5538169999999996
C      10.6116250000000001    2.2508569999999999   -8.1485859999999999
C      11.0116200000000006    0.9652620000000000   -8.5473440000000007
C      10.0850939999999998    0.1053680000000000   -9.1222010000000004
C       8.7389449999999993    0.4879250000000000   -9.3156520000000000
C       8.3697260000000000    1.7992189999999999   -8.9380790000000001
C       9.2875800000000002    2.6722389999999998   -8.3698219999999992
C       7.8077509999999997   -0.4729970000000000   -9.8771039999999992
C       6.4602089999999999   -0.3728800000000000   -9.9748219999999996
C       5.6926769999999998   -1.4680260000000001  -10.5797070000000009
O       6.1395379999999999   -2.4995210000000001  -11.0627870000000001
O       4.3402349999999998   -1.2096279999999999  -10.5473459999999992
H      11.1958590000000004    3.9215409999999999   -7.3687490000000002
H      12.0450890000000008    0.6627220000000000   -8.3865669999999994
H      10.3990369999999999   -0.8969160000000000   -9.4216879999999996
H       7.3483150000000004    2.1441880000000002   -9.1002229999999997
H       8.9811280000000000    3.6811590000000001   -8.0822289999999999
H       8.2438050000000000   -1.4033359999999999  -10.2548720000000007
H       5.8956109999999997    0.4839070000000000   -9.6074509999999993
H       3.9236469999999999   -1.9864240000000000  -10.9736150000000006
