  115
 
H      13.5183599999999995    0.3713900000000000   -3.6981660000000001
O      15.2590540000000008    1.3454510000000000   -5.3654390000000003
H      15.6801279999999998   -0.7349130000000000   -3.9862180000000000
H      14.0093730000000001   -0.8973130000000000   -5.7468009999999996
Si     14.5684290000000001   -0.0189790000000000   -4.6791229999999997
O      13.6728520000000007    3.3966400000000001   -4.6675100000000000
O      16.1130040000000001    3.9183240000000001   -5.4730340000000002
Si     14.8285370000000007    2.8760230000000000   -5.7018380000000004
O      11.9727350000000001    5.4624550000000003   -4.9355250000000002
O      12.6812830000000005    4.6217410000000001   -2.5215950000000000
O      14.4899310000000003    5.9082410000000003   -4.1150750000000000
Si     13.2147699999999997    4.8405529999999999   -4.0415200000000002
O      10.4420070000000003    7.4052579999999999   -5.9684549999999996
O      13.0187360000000005    7.9046620000000001   -5.5551110000000001
Si     11.9274959999999997    6.7369560000000002   -5.9759330000000004
O       9.5225100000000005    7.9751289999999999   -3.5428709999999999
O      10.5410179999999993    9.9707880000000007   -5.1164420000000002
Si      9.6869820000000004    8.5622279999999993   -5.0626410000000002
H      11.4272770000000001    4.4994019999999999   -0.3124880000000000
H      10.0958100000000002    4.8739049999999997   -2.3467050000000000
H      11.5088629999999998    6.6686340000000000   -1.4488220000000001
Si     11.3713990000000003    5.1908060000000003   -1.6353540000000000
H       8.6443300000000001    7.1253590000000004   -1.3057960000000000
H       7.3462209999999999    8.8694260000000007   -2.4334980000000002
H       9.4994969999999999    9.4161889999999993   -1.3919390000000000
Si      8.7240009999999995    8.3703520000000005   -2.1293940000000000
H       7.4016859999999998    7.1863260000000002  -13.1070309999999992
H       9.2624089999999999    5.7900499999999999  -12.3014840000000003
H      11.6239760000000008    4.4659979999999999  -13.4170560000000005
Si      8.6948000000000008    7.1720540000000002  -12.3608139999999995
H      13.5927480000000003    5.3908519999999998  -14.5520230000000002
H       9.6772539999999996    8.0878340000000009  -13.0265149999999998
Si     12.8224780000000003    5.3480699999999999  -13.2731189999999994
H       4.9324089999999998    8.6876899999999999   -9.3919789999999992
H      12.3915009999999999    6.7257179999999996  -12.8774409999999992
O       8.3684510000000003    7.7256450000000001  -10.8157239999999994
Si      4.5637150000000002    8.8375310000000002   -7.9487600000000000
O      13.8586220000000004    4.7082709999999999  -12.1163349999999994
H       3.8876689999999998   10.1525309999999998   -7.7266130000000004
H       3.6628599999999998    7.7229310000000000   -7.5274210000000004
Si      9.2086670000000002    7.9044679999999996   -9.4324750000000002
O       5.9300879999999996    8.7531979999999994   -6.9877909999999996
O       9.9821159999999995    9.3711810000000000   -9.3603039999999993
Si     14.7288779999999999   -0.3381200000000000   -9.4858019999999996
Si     13.8762369999999997    4.7596829999999999  -10.4832319999999992
O       8.1554160000000007    7.7996239999999997   -8.1705880000000004
H      15.8368579999999994   -1.1026520000000000  -10.1342909999999993
O      10.2994859999999999    6.6805289999999999   -9.3003280000000004
O      14.9958440000000000    5.8368960000000003   -9.9029679999999995
Si      7.5274690000000000    8.9940490000000004   -7.1811189999999998
O      12.4008360000000000    5.2572630000000000   -9.9636689999999994
O      15.4096940000000000    1.0916570000000001   -8.9215029999999995
O       7.7786989999999996   10.4792539999999992   -7.8364279999999997
O      14.1852760000000000    3.2400509999999998   -9.9268820000000009
Si     11.8950790000000008    6.5056680000000000   -9.0308510000000002
Si     15.1052999999999997    2.6724679999999998   -8.6912380000000002
O      12.5869129999999991    7.9567860000000001   -9.4567429999999995
O      16.5679179999999988    3.4934180000000001   -8.6342029999999994
O       8.2009380000000007    8.8171479999999995   -5.6929990000000004
O      12.2206949999999992    6.1219999999999999   -7.4733780000000003
O      14.3582479999999997    3.0279980000000002   -7.2805790000000004
H      16.6914550000000013    3.9968080000000001   -6.2541820000000001
H      15.2959669999999992    5.4740820000000001   -4.4707470000000002
H      13.7777139999999996    7.5296900000000004   -5.0581779999999998
H      11.5051000000000005    9.8352609999999991   -5.0729030000000002
H      10.9535950000000000    9.3065800000000003   -9.4341629999999999
H      15.8085819999999995    5.4248310000000002   -9.5575799999999997
H       8.6538529999999998   10.5818110000000001   -8.2595170000000007
H      13.5562090000000008    7.9825239999999997   -9.3921360000000007
H      17.2855400000000010    3.0502410000000002   -9.1154530000000005
H      13.6603420000000000   -0.0135440000000000  -10.4840680000000006
H      14.1589150000000004   -1.0897209999999999   -8.3340060000000005
C       9.5863530000000008    2.7941020000000001   -7.1813680000000000
C       9.3339960000000008    0.3017440000000000   -6.8467539999999998
C      10.6302210000000006    0.0241160000000000   -7.6179500000000004
C      11.5715990000000009    1.2381139999999999   -7.5114500000000000
C       5.8207940000000002   -5.4967259999999998   -4.2948820000000003
C       6.2654839999999998   -5.6292450000000001   -6.6731579999999999
C       5.6605679999999996   -6.8808059999999998   -6.7162940000000004
H      10.0729489999999995    3.9055260000000001   -5.6145470000000000
H      11.6997979999999995   -0.8886540000000001   -6.3000670000000003
H      11.4526299999999992    1.8740159999999999   -5.6656730000000000
H       4.7497800000000003   -6.8241240000000003   -2.4602200000000001
H       4.2301060000000001   -8.8855100000000000   -4.6951570000000000
C       6.3575109999999997   -4.9104099999999997   -5.4626799999999998
C       5.2078879999999996   -6.7394200000000000   -4.3389389999999999
C       5.1252030000000000   -7.4463439999999999   -5.5541820000000000
O       8.4637919999999998    4.0733090000000001   -8.9211279999999995
O       8.3438389999999991   -1.1606639999999999   -4.7942530000000003
C       8.6425780000000003    1.5841980000000000   -7.3081090000000000
C      10.9049420000000001    2.5434000000000001   -7.9556350000000000
O       9.8783949999999994    2.9617810000000002   -5.7733040000000004
O      11.2841229999999992   -1.1499390000000000   -7.1471629999999999
O      12.0852170000000001    1.3100430000000001   -6.1670499999999997
O       8.8659350000000003    5.0629140000000001   -6.9138679999999999
O       4.6477199999999996   -7.3805529999999999   -3.2504270000000002
O       4.5338390000000004   -8.6740919999999999   -5.6016719999999998
C       8.8949359999999995    4.0303129999999996   -7.7854099999999997
C       8.1093700000000002   -1.5352360000000000   -5.9352289999999996
O       8.4539390000000001   -0.8260510000000000   -7.0617900000000002
H       8.5187729999999995    5.8632590000000002   -7.3747280000000002
C       7.4405630000000000   -2.7885570000000000   -6.3126460000000000
C       6.9879889999999998   -3.6077080000000001   -5.3371300000000002
H       9.5426500000000001    0.3559320000000000   -5.7690590000000004
H       7.7483870000000001    1.7583359999999999   -6.6943440000000001
H       8.3268140000000006    1.4949550000000000   -8.3579729999999994
H      10.3864280000000004   -0.1651780000000000   -8.6771089999999997
H      12.4436060000000008    1.0349029999999999   -8.1492009999999997
H      10.6868730000000003    2.5053329999999998   -9.0325959999999998
H      11.5988559999999996    3.3796740000000001   -7.7911590000000004
H       7.3649069999999996   -3.0092720000000002   -7.3771019999999998
H       7.1192960000000003   -3.2380000000000000   -4.3146740000000001
H       5.8889350000000000   -4.9574420000000003   -3.3463870000000000
H       6.6901760000000001   -5.2146580000000000   -7.5876140000000003
H       5.5965330000000000   -7.4469079999999996   -7.6455390000000003
