   92
 
H      13.0775199999999998   -0.2361740000000000   -4.5567849999999996
O      15.0971860000000007    1.0867220000000000   -5.5290699999999999
H      15.2387979999999992   -0.3570270000000000   -3.3959839999999999
H      14.9505339999999993   -1.4553910000000001   -5.5691189999999997
Si     14.5622629999999997   -0.2835320000000000   -4.7266269999999997
O      13.6501909999999995    3.1434650000000000   -4.6187399999999998
O      15.8598149999999993    3.6519159999999999   -5.9881520000000004
Si     14.5802219999999991    2.5988099999999998   -5.8513489999999999
O      11.9044939999999997    5.1518940000000004   -5.0498310000000002
O      12.7840910000000001    4.6476080000000000   -2.5904889999999998
O      14.4595179999999992    5.7198529999999996   -4.4400940000000002
Si     13.2024760000000008    4.6652449999999996   -4.1661299999999999
O      10.1065950000000004    7.0065140000000001   -5.7587289999999998
O      12.6328230000000001    7.7354729999999998   -5.5086830000000004
Si     11.6358840000000008    6.4886049999999997   -5.9644349999999999
O       8.9793909999999997    7.9059860000000004   -3.5289009999999998
O      10.2954509999999999    9.6477170000000001   -5.1843500000000002
Si      9.3525340000000003    8.2975370000000002   -5.0701029999999996
H      11.8603280000000009    5.2902670000000001   -0.3070610000000000
H      10.2453179999999993    5.0251359999999998   -2.1439059999999999
H      11.7337080000000000    6.9680660000000003   -2.0902110000000000
Si     11.6034819999999996    5.5124899999999997   -1.7605260000000000
H       8.9270580000000006    7.4927219999999997   -1.0233740000000000
H       7.6003540000000003    9.3611620000000002   -1.8868700000000000
H      10.0458839999999991    9.5276230000000002   -1.7972900000000001
Si      8.8860790000000005    8.6079120000000007   -2.0196890000000001
H       7.5862299999999996    7.7195700000000000  -13.0120609999999992
H       9.2366609999999998    6.2565160000000004  -11.9281229999999994
H      10.9223070000000000    4.6869569999999996  -13.6328169999999993
Si      8.9269520000000000    7.6565510000000003  -12.3537979999999994
H      13.1426269999999992    4.6992320000000003  -14.6742570000000008
H       9.9798670000000005    8.1356800000000007  -13.3038469999999993
Si     12.3474400000000006    5.1118819999999996  -13.4798559999999998
H       5.0257040000000002   10.3702400000000008   -9.3932590000000005
H      12.4199579999999994    6.5949229999999996  -13.2931589999999993
O       8.8984780000000008    8.6811889999999998  -11.0366049999999998
Si      4.5457520000000002    9.9955149999999993   -8.0258430000000001
O      13.0275379999999998    4.3290550000000003  -12.1620030000000003
H       3.9201790000000001   11.1776879999999998   -7.3575080000000002
H       3.5532580000000000    8.8793849999999992   -8.1169539999999998
Si      9.2766579999999994    8.6246390000000002   -9.4491029999999991
O       5.8164699999999998    9.4552709999999998   -7.0822750000000001
O      10.2340129999999991    9.8948339999999995   -8.9966430000000006
Si     13.5180229999999995   -0.6572550000000000   -8.7966650000000008
Si     13.0980249999999998    4.6059830000000002  -10.5561439999999997
O       7.8942059999999996    8.6953530000000008   -8.5725840000000009
H      14.5858709999999991   -1.6837130000000000   -8.6098680000000005
O      10.0208060000000003    7.1892250000000004   -9.1332599999999999
O      14.4064270000000008    5.5286910000000002  -10.1132059999999999
Si      7.4426740000000002    9.4477840000000004   -7.1699580000000003
O      11.7669390000000007    5.4444650000000001  -10.1068130000000007
O      14.2851800000000004    0.7802330000000000   -9.2037750000000003
O       7.9953079999999996   10.9919799999999999   -7.0961140000000000
O      13.1528639999999992    3.1351290000000001   -9.8135820000000002
Si     11.5522609999999997    6.6545249999999996   -9.0169720000000009
Si     14.1884479999999993    2.3613800000000000   -8.8185160000000007
O      12.5129549999999998    7.9658400000000000   -9.3624379999999991
O      15.7260220000000004    3.0288050000000002   -8.9775109999999998
O       7.9567660000000000    8.5109010000000005   -5.9080199999999996
O      11.8780040000000007    6.0542930000000004   -7.5297890000000001
O      13.7253989999999995    2.6047319999999998   -7.2653400000000001
H      16.2330189999999988    3.6757209999999998   -6.8892899999999999
H      15.2035940000000007    5.2975930000000000   -4.9175389999999997
H      13.4970250000000007    7.4189860000000003   -5.1743170000000003
H      11.2485700000000008    9.4397690000000001   -5.1515690000000003
H      11.1836950000000002    9.7039329999999993   -9.1237440000000003
H      15.1944649999999992    5.0061700000000000   -9.8760709999999996
H       8.9396489999999993   11.0860070000000004   -7.3189330000000004
H      13.4540150000000001    7.7521839999999997   -9.4837089999999993
H      16.3529699999999991    2.4536539999999998   -9.4464039999999994
H      12.6058290000000000   -1.0426830000000000   -9.9149469999999997
H      12.7415520000000004   -0.4710730000000000   -7.5317629999999998
O       8.2079290000000000    5.3965189999999996   -7.2878610000000004
C       7.1806440000000000    4.5941049999999999   -7.6595170000000001
C       7.5195920000000003    3.3148019999999998   -8.1310330000000004
C       6.5168059999999999    2.4359270000000000   -8.5103510000000000
C       5.1496360000000001    2.7875179999999999   -8.4304260000000006
C       4.8330950000000001    4.0842440000000000   -7.9650600000000003
C       5.8272560000000002    4.9779770000000001   -7.5865770000000001
C       4.1633950000000004    1.7947139999999999   -8.8120619999999992
C       2.8116850000000002    1.8714850000000001   -8.7583710000000004
C       2.0062869999999999    0.7203770000000000   -9.1824530000000006
O       2.4172609999999999   -0.3500430000000000   -9.6122779999999999
O       0.6603760000000000    0.9718480000000000   -9.0392650000000003
H       7.8841289999999997    6.2739370000000001   -7.0083200000000003
H       8.5726449999999996    3.0388470000000001   -8.1865590000000008
H       6.7809169999999996    1.4410149999999999   -8.8732539999999993
H       3.7903780000000000    4.3985420000000000   -7.8966279999999998
H       5.5669139999999997    5.9767859999999997   -7.2282019999999996
H       4.5653240000000004    0.8449040000000000   -9.1813149999999997
H       2.2721209999999998    2.7490999999999999   -8.4012229999999999
H       0.2197630000000000    0.1511250000000000   -9.3430630000000008
