  100
 
H      15.9852010000000000    0.6607610000000000   -3.9526240000000001
O      16.0249920000000010    2.8126959999999999   -5.4060940000000004
H      16.4283719999999995    2.7815099999999999   -2.8373140000000001
H      18.0907260000000001    1.8181920000000000   -4.3321040000000002
Si     16.6252770000000005    2.0053060000000000   -4.0995600000000003
O      13.4723290000000002    3.1529210000000001   -4.7324240000000000
O      14.7698680000000007    4.7294970000000003   -6.6362699999999997
Si     14.5309109999999997    3.2532670000000001   -5.9255579999999997
O      11.4245339999999995    4.9092909999999996   -5.2179779999999996
O      11.7469660000000005    3.3214929999999998   -2.4886390000000000
O      12.9303240000000006    5.2540410000000000   -3.3285890000000000
Si     12.0975560000000009    3.8627650000000000   -4.0587619999999998
O      10.0341860000000000    7.0355480000000004   -6.0310020000000000
O      12.3300079999999994    7.3876559999999998   -4.6968420000000002
Si     11.5311229999999991    6.4140519999999999   -5.7565730000000004
O       8.1917829999999991    7.6826759999999998   -4.2282750000000000
O      10.3122489999999996    9.3558640000000004   -4.6940400000000002
Si      9.2316289999999999    8.2838680000000000   -5.3358999999999996
H      11.1949039999999993    0.7170090000000000   -2.5854460000000001
H       9.3096350000000001    2.2819859999999998   -2.4160390000000000
H      10.8342799999999997    1.9947820000000001   -0.5850980000000000
Si     10.7526060000000001    2.0566190000000000   -2.0880890000000001
H       7.6465240000000003    5.1606319999999997   -4.4561050000000000
H       7.0429979999999999    6.3426629999999999   -2.4084210000000001
H       9.3836169999999992    5.8136260000000002   -2.8676910000000002
Si      8.0764890000000005    6.2023500000000000   -3.4764879999999998
H       7.0364670000000000    8.6300229999999996  -12.6511410000000009
H       8.2042169999999999    6.5294359999999996  -12.9604230000000005
H       9.0827390000000001    4.2567370000000002  -11.5711899999999996
Si      8.3559789999999996    7.9448270000000001  -12.4981089999999995
H      10.2890040000000003    3.9851960000000002  -13.6723499999999998
H       9.3606890000000007    8.6269050000000007  -13.3706270000000007
Si     10.3996779999999998    4.4117069999999998  -12.2455079999999992
H       7.0572480000000004   10.5074009999999998  -10.6509999999999998
H      10.8393829999999998    5.8396109999999997  -12.1861510000000006
O       8.8155070000000002    7.9846690000000002  -10.9234010000000001
Si      6.7042909999999996   11.4126130000000003   -9.5188199999999998
O      11.5370340000000002    3.4380480000000002  -11.5184420000000003
H       7.1214969999999997   12.8093719999999998   -9.8597420000000007
H       5.2285959999999996   11.3888549999999995   -9.2969749999999998
Si     10.0406099999999991    8.3721800000000002   -9.9187539999999998
O       7.4338800000000003   10.9436909999999994   -8.1140930000000004
O      11.2882339999999992    8.9928349999999995  -10.7840229999999995
Si     14.9172580000000004   -0.9195040000000000   -8.5719960000000004
Si     12.5986539999999998    3.7727339999999998  -10.3255300000000005
O       9.4920340000000003    9.4733590000000003   -8.8644300000000005
H      16.2817049999999988   -1.5242549999999999   -8.6716780000000000
O      10.5248539999999995    7.0289099999999998   -9.1094310000000007
O      13.8843960000000006    4.6215500000000000  -10.9606969999999997
Si      8.7837859999999992   10.1935110000000009   -7.5899770000000002
O      11.8663469999999993    4.7178380000000004   -9.2093380000000007
O      15.0400630000000000    0.6448530000000000   -9.1024370000000001
O       9.7873000000000001   11.3010950000000001   -6.9187310000000002
O      13.1434080000000009    2.3869389999999999   -9.6636190000000006
Si     11.9464050000000004    6.2991010000000003   -8.7973379999999999
Si     14.4656430000000000    2.1148820000000002   -8.7185500000000005
O      13.1322709999999994    7.0381559999999999   -9.6850690000000004
O      15.5912620000000004    3.2746430000000002   -9.1326920000000005
O       8.3506959999999992    9.0816470000000002   -6.4575420000000001
O      12.3259390000000000    6.4080890000000004   -7.2126970000000004
O      14.1207609999999999    2.2031019999999999   -7.1368720000000003
H      13.9916699999999992    5.3007299999999997   -6.7857029999999998
H      13.0362089999999995    5.0951649999999997   -2.3809439999999999
H      12.6805789999999998    6.7485749999999998   -3.9902929999999999
H      11.1607509999999994    8.9035860000000007   -4.4739829999999996
H      12.1340920000000008    8.5361580000000004  -10.6050620000000002
H      14.7226219999999994    4.2945430000000000  -10.5634139999999999
H      10.2206659999999996   10.9702780000000004   -6.1092420000000001
H      13.6048120000000008    6.3950199999999997  -10.2593040000000002
H      15.6779499999999992    3.9445389999999998   -8.4236769999999996
H      13.9950310000000009   -1.6816560000000000   -9.4663190000000004
H      14.4441030000000001   -0.9846350000000000   -7.1593179999999998
C       9.3228609999999996    2.7563350000000000   -7.8757479999999997
C       9.9613209999999999    1.6795359999999999   -8.5243359999999999
C      10.9067279999999993    0.9159659999999999   -7.8372880000000000
O      11.5835790000000003   -0.1254690000000000   -8.4486249999999998
C      11.2341510000000007    1.1947820000000000   -6.5115390000000000
C      10.6171500000000005    2.2787350000000002   -5.8645290000000001
O      10.9689540000000001    2.5828540000000002   -4.5949059999999999
C       9.6406259999999993    3.0251739999999998   -6.5360719999999999
C       8.3852720000000005    3.5841029999999998   -8.6302420000000009
C       7.9289889999999996    4.7989620000000004   -8.2466139999999992
C       7.0109779999999997    5.6749539999999996   -8.9610400000000006
C       6.5992819999999996    6.8718919999999999   -8.3387060000000002
C       5.7411839999999996    7.7731750000000002   -8.9588669999999997
C       5.2695689999999997    7.4982870000000004  -10.2454199999999993
O       4.4403059999999996    8.4199269999999995  -10.8423929999999995
C       5.6514210000000000    6.3105070000000003  -10.8857169999999996
C       6.5062490000000004    5.4151030000000002  -10.2513400000000008
H       9.7407800000000009    1.4675039999999999   -9.5744080000000000
H      11.4024169999999998   -0.0756900000000000   -9.4009459999999994
H      11.9992540000000005    0.6176830000000000   -5.9958479999999996
H       9.1584380000000003    3.8368650000000000   -5.9971269999999999
H       8.0709700000000009    3.1704940000000001   -9.5942220000000002
H       8.2882180000000005    5.2097970000000000   -7.2991529999999996
H       6.9731560000000004    7.1042769999999997   -7.3419359999999996
H       5.4355019999999996    8.6896609999999992   -8.4545639999999995
H       4.2678450000000003    8.1276910000000004  -11.7517049999999994
H       5.2827149999999996    6.0941799999999997  -11.8923620000000003
H       6.7963730000000000    4.5061380000000000  -10.7794310000000007
