  106
 
H      10.2812560000000008    0.1838830000000000   -7.3646620000000000
O      12.3221070000000008    0.9309120000000000   -5.9612579999999999
H      10.1117019999999993    0.0874770000000000   -4.9288759999999998
H      11.5524260000000005   -1.4691650000000001   -6.1173900000000003
Si     11.0226260000000007   -0.0717460000000000   -6.0990099999999998
O      12.1130340000000007    3.2709470000000000   -4.6974640000000001
O      14.4546700000000001    2.0825930000000001   -4.8113840000000003
Si     13.0402319999999996    2.3461099999999999   -5.6368210000000003
O      11.6162720000000004    5.9177090000000003   -4.5359239999999996
O      11.6736470000000008    4.4195729999999998   -2.3421189999999998
O      13.9247440000000005    5.0127360000000003   -3.7748290000000000
Si     12.2965660000000003    4.6409079999999996   -3.7983620000000000
O      10.5600389999999997    8.0985700000000005   -5.5619690000000004
O      13.1478920000000006    7.6210740000000001   -5.9206659999999998
Si     11.6477819999999994    6.9209630000000004   -5.7888820000000001
O       8.7888559999999991   10.0274599999999996   -5.0384739999999999
O      10.8822279999999996   10.5385220000000004   -6.6102359999999996
Si      9.7826090000000008    9.3979730000000004   -6.1479699999999999
H      11.9704969999999999    5.1092259999999996   -0.0232870000000000
H       9.7802450000000007    4.3619370000000002   -0.4979310000000000
H      10.6695329999999995    6.6741590000000004   -1.2080530000000000
Si     10.8701609999999995    5.2014800000000001   -1.0800600000000000
H       8.1250479999999996   11.2154089999999993   -2.9216910000000000
H       8.7873699999999992    8.8695780000000006   -2.6874920000000002
H       6.6360440000000001    9.5119319999999998   -3.7247640000000000
Si      8.0776930000000000    9.8529029999999995   -3.5476040000000002
H       7.0941349999999996    3.6804640000000002  -12.0816090000000003
H       9.5026750000000000    4.0418019999999997  -11.7834050000000001
H      11.9588920000000005    3.6373579999999999  -13.1353910000000003
Si      8.2101340000000000    4.6677330000000001  -12.1753590000000003
H      13.3249060000000004    5.4189829999999999  -14.0794630000000005
H       8.3029740000000007    5.1592729999999998  -13.5864569999999993
Si     12.5863280000000000    4.9609899999999998  -12.8621110000000005
H       4.0312289999999997    9.8542880000000004   -7.8374920000000001
H      11.5299209999999999    5.9632269999999998  -12.5201300000000000
O       7.8407960000000001    5.9477880000000001  -11.1869929999999993
Si      4.9632990000000001    9.7196590000000000   -6.6753910000000003
O      13.6953250000000004    4.8391729999999997  -11.6345369999999999
H       5.3930410000000002   11.0786770000000008   -6.2312479999999999
H       4.2725850000000003    9.0122079999999993   -5.5604129999999996
Si      8.5950760000000006    6.9293389999999997  -10.1337820000000001
O       6.2778609999999997    8.7949330000000003   -7.0968299999999997
O       9.3334189999999992    8.1758039999999994  -10.9243210000000008
Si     14.3343430000000005   -0.0893740000000000   -8.9790179999999999
Si     13.7124939999999995    5.1478029999999997  -10.0362250000000000
O       7.4570770000000000    7.5157660000000002   -9.1118520000000007
H      14.9875810000000005   -1.0077410000000000   -7.9937509999999996
O       9.6926469999999991    6.0613929999999998   -9.2808069999999994
O      14.3992799999999992    6.6400759999999996   -9.8007670000000005
Si      7.4737619999999998    8.8831930000000003   -8.2082510000000006
O      12.1893870000000000    5.1900230000000001   -9.4835049999999992
O      14.8630759999999995    1.4428960000000000   -8.6702449999999995
O       7.1723489999999996   10.2107559999999999   -9.1354889999999997
O      14.5988980000000002    4.0240590000000003   -9.2656880000000008
Si     11.2104649999999992    6.2846419999999998   -8.7597159999999992
Si     14.6922149999999991    2.9313950000000002   -8.0634080000000008
O      11.6541080000000008    7.8158659999999998   -9.2486759999999997
O      16.0800230000000006    3.1694480000000000   -7.1966200000000002
O       8.9250299999999996    8.9757990000000003   -7.4779570000000000
O      11.3249610000000001    6.0963500000000002   -7.1619000000000002
O      13.3942350000000001    3.0689579999999999   -7.0825899999999997
H      15.2391159999999992    1.9177750000000000   -5.3623110000000000
H      14.4932429999999997    4.2415349999999998   -3.6196190000000001
H      13.7882800000000003    7.2233330000000002   -5.3276839999999996
H      11.7961170000000006   10.2659699999999994   -6.4577260000000001
H      10.2229989999999997    8.3552499999999998  -10.5550759999999997
H      15.2418069999999997    6.6490830000000001   -9.3279359999999993
H       7.7402030000000002   10.2842500000000001   -9.9173439999999999
H      12.6191779999999998    7.9308240000000003   -9.3091559999999998
H      16.0791660000000007    3.9806720000000002   -6.6709370000000003
H      14.7750730000000008   -0.4694910000000000  -10.3529920000000004
H      12.8548760000000009   -0.1971910000000000   -8.8546689999999995
C       8.2290480000000006    3.3138109999999998   -7.6951429999999998
C       7.3435940000000004    2.0649959999999998   -7.8185130000000003
C       7.9169090000000004    5.2090800000000002   -6.0649810000000004
C       8.7866730000000004    3.1320340000000000   -5.2324909999999996
C       8.9752469999999995    3.7157879999999999   -3.9899659999999999
C      11.0048589999999997    2.1558639999999998   -9.7963649999999998
C      10.1495460000000008    0.8721190000000000  -11.6725159999999999
H       6.1618449999999996    2.8641770000000002   -6.5218309999999997
H       7.0940300000000001    7.3690619999999996   -5.3763360000000002
H       7.0215509999999997    0.5107150000000000  -11.3344430000000003
H      12.5136389999999995    0.8754790000000000  -12.2664030000000004
C       8.2928750000000004    3.8731469999999999   -6.3168550000000003
C       8.0547620000000002    5.7957219999999996   -4.8195759999999996
C       8.7095430000000000    5.0989160000000000   -3.7229380000000001
C       8.8674189999999999    0.9638150000000000  -11.1223290000000006
C      11.2134350000000005    1.4590360000000000  -10.9795639999999999
C       7.2431510000000001    1.6464749999999999   -9.2821079999999991
O       6.0356620000000003    2.3295750000000002   -7.3313709999999999
O       7.6094220000000004    7.0904569999999998   -4.5983650000000003
O       9.0496420000000004    5.6792990000000003   -2.6249769999999999
O       7.8496569999999997    0.3544010000000000  -11.8187239999999996
O      12.5127530000000000    1.3775310000000001  -11.4367640000000002
C       9.7073540000000005    2.2577889999999998   -9.2809640000000009
C       8.6133559999999996    1.6339710000000001   -9.9141739999999992
O       9.5904769999999999    2.9656169999999999   -8.1283130000000003
H       7.8484990000000003    4.0840560000000004   -8.3910619999999998
H       7.8212159999999997    1.2513420000000000   -7.2359099999999996
H       7.5075979999999998    5.8042840000000000   -6.8894900000000003
H       9.0715839999999996    2.0875330000000001   -5.3753970000000004
H       6.7713169999999998    0.6471380000000000   -9.3330059999999992
H       6.5559110000000000    2.3519329999999998   -9.7845200000000006
H       9.4037640000000007    3.1323319999999999   -3.1759179999999998
H      11.8197869999999998    2.6316130000000002   -9.2610340000000004
H      10.2978780000000008    0.3374610000000000  -12.6119629999999994
