   93
 
O      15.2169600000000003   -1.6966930000000000   -5.4990810000000003
O      13.8629379999999998    0.6295880000000000   -5.2150730000000003
O      15.2822209999999998   -0.4546530000000000   -3.0989909999999998
O      16.4890410000000003    0.7509540000000000   -5.1384819999999998
Si     15.1869949999999996   -0.2367890000000000   -4.7336679999999998
O      12.3460330000000003    2.8323260000000001   -5.4465240000000001
O      14.9735630000000004    2.9974980000000002   -5.9783330000000001
Si     13.6227999999999998    2.0181140000000002   -6.0768540000000000
O      10.9013600000000004    5.1010520000000001   -4.9977220000000004
O      12.1725510000000003    3.8615119999999998   -2.9847880000000000
O      13.5836980000000001    5.2024220000000003   -4.8833770000000003
Si     12.2330109999999994    4.2443710000000001   -4.5975859999999997
O       9.3339210000000001    7.1022759999999998   -5.8891859999999996
O      11.9979969999999998    7.4747729999999999   -5.7865810000000000
Si     10.7783370000000005    6.3854069999999998   -6.0685289999999998
O       8.2875359999999993    7.7890069999999998   -3.5110480000000002
O       9.6838139999999999    9.6564460000000008   -4.9921020000000000
Si      8.6634490000000000    8.3597540000000006   -5.0099929999999997
O      13.4334559999999996    4.3894989999999998   -0.6580270000000000
O      10.8389129999999998    5.0064989999999998   -0.8545420000000000
O      12.4819169999999993    6.4773019999999999   -2.2455050000000001
Si     12.2628299999999992    4.9129069999999997   -1.7029099999999999
O       8.8270400000000002    7.0226910000000000   -0.9428630000000000
O       8.1366040000000002    9.5584860000000003   -1.5653840000000001
O      10.5730819999999994    8.6604559999999999   -2.3420220000000000
Si      8.9790270000000003    8.2265289999999993   -2.0573229999999998
O       7.3039160000000001    9.1328610000000001  -13.3883480000000006
O       8.5685979999999997    6.6716040000000003  -12.9658259999999999
O      11.2906180000000003    6.4661850000000003  -12.8862629999999996
Si      8.4648289999999999    8.3089829999999996  -12.5565219999999993
O      12.1581279999999996    4.5198039999999997  -14.6756510000000002
O       9.9618710000000004    8.9278320000000004  -12.8413170000000001
Si     12.4941739999999992    5.4205969999999999  -13.3227580000000003
O       4.8981519999999996    9.0212140000000005  -10.2851090000000003
O      13.7848729999999993    6.4482290000000004  -13.4954560000000008
O       7.9210320000000003    8.4214319999999994  -10.9872230000000002
Si      4.7512980000000002   10.1076069999999998   -9.0364059999999995
O      12.7914960000000004    4.2445529999999998  -12.1848069999999993
O       5.4408709999999996   11.5797019999999993   -9.3653919999999999
O       3.1276269999999999   10.2852999999999994   -8.7822540000000000
Si      8.7575930000000000    8.1910430000000005   -9.5678409999999996
O       5.4389329999999996    9.5222320000000007   -7.6122189999999996
O       9.8669799999999999    9.3883139999999994   -9.2811730000000008
Si     14.6769149999999993   -1.0977509999999999   -9.0437130000000003
Si     12.7346299999999992    4.1884420000000002  -10.5430829999999993
O       7.6452679999999997    8.1757460000000002   -8.3766020000000001
O      16.0475349999999999   -0.4855030000000000   -8.3248130000000007
O       9.4960290000000001    6.7067639999999997   -9.6779309999999992
O      13.9510649999999998    5.0727810000000000   -9.8203209999999999
Si      7.0403130000000003    9.3293499999999998   -7.3362920000000003
O      11.3028420000000001    4.7862380000000000  -10.0053619999999999
O      13.9450930000000000    0.1983680000000000   -9.7638529999999992
O       7.7565559999999998   10.8029829999999993   -7.6377179999999996
O      12.8506309999999999    2.5849940000000000  -10.1398240000000008
Si     10.9470189999999992    6.1529199999999999   -9.1480230000000002
Si     13.8527719999999999    1.7420160000000000   -9.1644780000000008
O      12.0239180000000001    7.3920719999999998   -9.4349089999999993
O      15.3219809999999992    2.5258129999999999   -9.2138089999999995
O       7.2814550000000002    8.7869969999999995   -5.8010159999999997
O      10.9160009999999996    5.6954110000000000   -7.5665579999999997
O      13.2507009999999994    1.6293380000000000   -7.6297030000000001
H      15.7671609999999998    2.4875699999999998   -5.7055350000000002
H      14.3390389999999996    4.6741180000000000   -5.2258100000000001
H      12.8610100000000003    7.0258580000000004   -5.7179099999999998
H      10.3487829999999992    9.5931460000000008   -4.2769649999999997
H      13.0759310000000006    6.5666529999999996   -3.0132140000000001
H      11.2327460000000006    7.9421749999999998   -2.2414969999999999
H      10.6817750000000000    8.2554490000000005  -12.8422149999999995
H      14.6389779999999998    6.0112589999999999  -13.6358639999999998
H       6.2782640000000001   11.7165689999999998   -8.8800050000000006
H      10.7949219999999997    9.1167669999999994   -9.4263709999999996
H      16.3760809999999992   -0.9723980000000000   -7.5471480000000000
H      14.7520150000000001    4.5509570000000004   -9.6205909999999992
H       8.7191480000000006   10.7697289999999999   -7.7914170000000000
H      12.9653019999999994    7.1515510000000004   -9.3522639999999999
H      16.0497039999999984    2.0387569999999999   -8.7873339999999995
O      14.9302600000000005   -2.2869600000000001  -10.1507459999999998
H      15.3044139999999995   -2.0089470000000000  -11.0026750000000000
O      13.7556870000000000   -1.7795859999999999   -7.8253139999999997
H      12.7933310000000002   -1.7433490000000000   -7.9502550000000003
H      14.5581720000000008   -1.7928450000000000   -6.2304290000000000
H      17.3270580000000010    0.5321150000000000   -4.6972269999999998
H      14.9066980000000004   -1.2889200000000001   -2.7721089999999999
H      11.9999380000000002    5.0479339999999997  -15.4741180000000007
H       7.5413969999999999    9.3953480000000003  -14.2913010000000007
H       5.7868750000000002    8.9426760000000005  -10.6770870000000002
H       2.5952069999999998    9.7411420000000000   -9.3865200000000009
H       7.8653170000000001    6.1170169999999997  -12.5882909999999999
H      10.3534780000000008    6.1615570000000002  -12.9168859999999999
H      14.0651689999999991    3.7504460000000002   -1.0251150000000000
H      10.8745360000000009    4.6282629999999996    0.0397300000000000
H       9.4528639999999999    6.2728669999999997   -1.0075980000000000
H       8.4202619999999992    9.9611380000000000   -0.7287240000000000
