   72
 
H      13.4618409999999997   -1.1206060000000000   -5.3721470000000000
O      14.6870089999999998    1.0971709999999999   -4.7167950000000003
H      14.9809940000000008   -1.0891679999999999   -3.4351520000000000
H      15.8798069999999996   -0.9886490000000000   -5.7133430000000001
Si     14.7438339999999997   -0.5908080000000000   -4.8233290000000002
O      12.9250579999999999    3.0952030000000001   -5.3388650000000002
O      15.5012659999999993    3.5167899999999999   -5.6248820000000004
Si     14.3237319999999997    2.3310620000000002   -5.7324750000000000
O      11.1579200000000007    5.1120919999999996   -4.8501649999999996
O      12.4836100000000005    3.9356309999999999   -2.8401809999999998
O      13.7692580000000007    5.5865629999999999   -4.6392720000000001
Si     12.5872159999999997    4.4239780000000000   -4.4001500000000000
O       9.4018289999999993    6.9538010000000003   -5.8062209999999999
O      11.9989360000000005    7.5534509999999999   -5.7343529999999996
Si     10.8997050000000009    6.3188050000000002   -5.9629000000000003
O       8.4719519999999999    8.1749770000000002   -3.6084209999999999
O       9.9725050000000000    9.5920290000000001   -5.4434820000000004
Si      8.8435760000000005    8.4062739999999998   -5.1908700000000003
H      12.8146690000000003    4.0927590000000000   -0.3116490000000000
H      10.5535589999999999    4.4827820000000003   -1.1843010000000000
H      12.2973569999999999    6.1745999999999999   -1.5004690000000001
Si     12.0115569999999998    4.7094250000000004   -1.4097610000000000
H       9.8124020000000005    7.4594019999999999   -1.5189809999999999
H       7.7894709999999998    8.7934610000000006   -1.2188010000000000
H       9.8291439999999994    9.8345430000000000   -2.1088819999999999
Si      9.0006430000000002    8.5901250000000005   -2.0719660000000002
H       7.8137109999999996    8.3141459999999991  -13.6454380000000004
H       9.7597179999999994    7.0493930000000002  -12.8589190000000002
H      10.7320589999999996    4.2058280000000003  -13.2761790000000008
Si      8.9222110000000008    8.2742769999999997  -12.6527530000000006
H      12.8921899999999994    3.8882340000000002  -14.4072829999999996
H       9.7862250000000000    9.4911460000000005  -12.7853919999999999
Si     12.1949520000000007    4.5054150000000002  -13.2397899999999993
H       4.9736589999999996   10.1054049999999993   -9.9533729999999991
H      12.4087800000000001    5.9900190000000002  -13.2240219999999997
O       8.2062980000000003    8.2371970000000001  -11.1333120000000001
Si      4.3941520000000001   10.2983879999999992   -8.5851159999999993
O      12.8886400000000005    3.8059110000000000  -11.8602369999999997
H       4.1759170000000001   11.7553169999999998   -8.3286309999999997
H       3.0996939999999999    9.5591209999999993   -8.4711029999999994
Si      8.7385629999999992    8.1524769999999993   -9.5798740000000002
O       5.4273670000000003    9.6684190000000001   -7.4104390000000002
O       9.8445049999999998    9.3428349999999991   -9.2145010000000003
Si     14.8018719999999995   -0.9713090000000000   -9.3986140000000002
Si     12.7870919999999995    4.1998959999999999  -10.2687589999999993
O       7.4356030000000004    8.3318460000000005   -8.6038789999999992
H      16.2607089999999985   -1.3141229999999999   -9.3883369999999999
O       9.4065799999999999    6.6444619999999999   -9.3443710000000006
O      13.9142379999999992    5.3501089999999998   -9.8143639999999994
Si      7.0530559999999998    9.4431899999999995   -7.4220490000000003
O      11.3021080000000005    4.8493529999999998   -9.9714329999999993
O      14.6551969999999994    0.6863180000000000   -9.6924039999999998
O       7.7763790000000004   10.9010320000000007   -7.7140570000000004
O      13.0094410000000007    2.8171360000000001   -9.3774020000000000
Si     10.9252839999999996    6.1407030000000002   -9.0032309999999995
Si     14.3710529999999999    2.0624870000000000   -8.8515099999999993
O      11.9304679999999994    7.4378349999999998   -9.3189469999999996
O      15.6657119999999992    3.1096919999999999   -9.0691039999999994
O       7.4414550000000004    8.7997479999999992   -5.9474000000000000
O      11.0710569999999997    5.6137860000000002   -7.4472639999999997
O      14.2094419999999992    1.6978169999999999   -7.2535109999999996
H      16.4193040000000003    3.2009609999999999   -5.6340409999999999
H      14.6234929999999999    5.1908760000000003   -4.9106560000000004
H      12.8530879999999996    7.2117449999999996   -5.3970659999999997
H      10.8809690000000003    9.2310960000000009   -5.4892620000000001
H      10.7719079999999998    9.0289809999999999   -9.2428799999999995
H      14.7582679999999993    4.9395980000000002   -9.5371959999999998
H       8.7188009999999991   10.8245470000000008   -7.9562900000000001
H      12.8740670000000001    7.1861499999999996   -9.3513610000000007
H      16.3291590000000006    2.7835120000000000   -9.6968840000000007
H      14.1091580000000008   -1.6826040000000000  -10.5119000000000007
H      14.1880279999999992   -1.3193390000000000   -8.0796939999999999
